version 2
run Net60StoreAndForward-0-20210316-23:25:01-9808
attr configname Net60StoreAndForward
attr datetime 20210316-23:25:01
attr experiment Net60StoreAndForward
attr inifile omnetpp.ini
attr iterationvars ""
attr iterationvarsf ""
attr measurement ""
attr network networks.Net60
attr processid 9808
attr repetition 0
attr replication #0
attr resultdir results
attr runnumber 0
attr seedset 0
param **.app.packetLength "32768 bytes"
param **.destAddresses "\"1 50\""
param **.sendIaTime "uniform(1ms, 5ms)"
param **.appType "\"App\""
param **.app.packetLength "4096 bytes"

vector 0 Net60.rte[50].app endToEndDelay:vector ETV
attr interpolationmode none
attr title "end-to-end delay of arrived packets, vector"
attr unit s
vector 1 Net60.rte[1].app endToEndDelay:vector ETV
attr interpolationmode none
attr title "end-to-end delay of arrived packets, vector"
attr unit s
0	89	0.002297701142	0.000724288
0	339	0.00343394115	0.000362144
0	363	0.003511636913	0.000362144
0	396	0.003559684068	0
0	486	0.003811681313	0.000724288
0	529	0.003932349451	0.001086432
0	623	0.004168341922	0.001086432
0	628	0.004194493451	0.000866414286
0	748	0.004430485922	0.000547955316
0	981	0.004884592647	0.002535008
0	1038	0.005007974149	0.002535008
0	1110	0.005146736647	0.000608838649
0	1243	0.005408880647	0.002985204267
0	1363	0.005671024647	0.003480886226
0	1481	0.005933168647	0.004706316744
0	1593	0.006195312647	0.001416636973
0	1638	0.006290768581	0.00181072
0	1720	0.006457456647	0.001977107643
0	1762	0.006552912581	0.00120219568
0	1848	0.006719600647	0.002389121276
0	1898	0.006815056581	0.003222369075
0	1985	0.006981744647	0.003831398985
0	2118	0.007202003105	0.002172864
0	2132	0.007243888647	0.003519047772
0	2272	0.007491890517	0.000724288
0	2278	0.007506032647	0.001313945801
0	2426	0.007768176647	0.001584369619
0	2508	0.007914316111	0.000362144
0	2564	0.008030320647	0.005939695469
0	2664	0.008229302041	0.000362144
0	2706	0.008292464647	0.001225612596
0	2845	0.00855139747	0.002897152
0	2848	0.008554608647	0.00372598803
0	2981	0.008816752647	0.005226266134
0	3007	0.008876791536	0.00181072
0	3107	0.009078896647	0.005806718392
0	3136	0.009106697961	0.000724288
0	3243	0.009341040647	0.006225460961
0	3367	0.009603184647	0.003123650543
0	3501	0.009865328647	0.002186241689
0	3614	0.010127472647	0.006543896187
0	3738	0.010389616647	0.006978563165
0	3769	0.010439080431	0.001448576
0	3870	0.010651760647	0.007157505861
0	3902	0.010701224431	0.000411385804
0	4013	0.010913904647	0.007718650638
0	4061	0.010963368431	0.001465131965
0	4155	0.011176048647	0.003630002665
0	4216	0.011286948768	0.001086432
0	4296	0.011438192647	0.007006410168
0	4414	0.011700336647	0.00713324464
0	4530	0.011962480647	0.004981896015
0	4653	0.012224624647	0.001299065252
0	4676	0.012265480088	0.000362144
0	4789	0.012486768647	0.007632117591
0	4916	0.012748912647	0.00209709263
0	5043	0.013011056647	0.008041891004
0	5068	0.013030121171	0.000724288
1	316	0.003371378466	0
1	468	0.003781051187	0.001086432
1	572	0.004043195187	0.002962321591
1	645	0.00422290146	0.000362144
1	676	0.004305339187	0.001554990347
1	819	0.004567483187	0.002029956354
1	945	0.004829627187	0.001650094477
1	1080	0.005091771187	0.003807626952
1	1214	0.005353915187	0.002820149102
1	1341	0.005616059187	0.002696150501
1	1458	0.005878203187	0.001501140211
1	1570	0.006140347187	0.004791829999
1	1696	0.006402491187	0.00349183074
1	1821	0.006664635187	0.004093496014
1	1957	0.006926779187	0.005365376077
1	2109	0.007188923187	0.001340091829
1	2251	0.007451067187	0.002610900723
1	2397	0.007713211187	0.006240113492
1	2537	0.007975355187	0.003446698401
1	2674	0.008237499187	0.00324512926
1	2816	0.008499643187	0.003175856538
1	2953	0.008761787187	0.004513112281
1	3083	0.009023931187	0.004857031053
1	3217	0.009286075187	0.0053107999
1	3343	0.009548219187	0.004845832654
1	3472	0.009810363187	0.006915931027
1	3583	0.010072507187	0.005728192112
1	3715	0.010334651187	0.006020154791
1	3850	0.010596795187	0.004820891649
1	3946	0.010806279958	0.000362144
1	3989	0.010858939187	0.007143421052
1	4133	0.011121083187	0.004584572547
1	4265	0.011383227187	0.003849272869
1	4395	0.011645371187	0.003145493898
1	4440	0.011740611586	0
1	4509	0.011907515187	0.00299040215
1	4639	0.012169659187	0.008057032159
1	4761	0.012431803187	0.005169291004
1	4884	0.012693947187	0.008490304177
1	5024	0.012956091187	0.00274269931

