version 2
run Net60Bursty-0-20210317-17:00:51-12944
attr configname Net60Bursty
attr datetime 20210317-17:00:51
attr experiment Net60Bursty
attr inifile omnetpp.ini
attr iterationvars ""
attr iterationvarsf ""
attr measurement ""
attr network networks.Net60
attr processid 12944
attr repetition 0
attr replication #0
attr resultdir results
attr runnumber 0
attr seedset 0
param **.appType "\"BurstyApp\""
param **.app.packetLength "intuniform(2048 byte, 16384 byte)"
param **.destAddresses "\"1 50\""
param **.appType "\"BurstyApp\""
param **.app.packetLength "4096 bytes"

statistic Net60.rte[0].routing outputIf:histogram
field count 72
field mean 0
field stddev 0
field min 0
field max 0
field sum 0
field sqrsum 0
attr interpolationmode none
attr title "output interface for each routed packet, histogram"
bin	-inf	0
bin	-0.5	0
bin	-0.48	0
bin	-0.46	0
bin	-0.44	0
bin	-0.42	0
bin	-0.4	0
bin	-0.38	0
bin	-0.36	0
bin	-0.34	0
bin	-0.32	0
bin	-0.3	0
bin	-0.28	0
bin	-0.26	0
bin	-0.24	0
bin	-0.22	0
bin	-0.2	0
bin	-0.18	0
bin	-0.16	0
bin	-0.14	0
bin	-0.12	0
bin	-0.1	0
bin	-0.08	0
bin	-0.06	0
bin	-0.04	0
bin	-0.02	0
bin	0	72
bin	0.02	0
bin	0.04	0
bin	0.06	0
bin	0.08	0
bin	0.1	0
bin	0.12	0
bin	0.14	0
bin	0.16	0
bin	0.18	0
bin	0.2	0
bin	0.22	0
bin	0.24	0
bin	0.26	0
bin	0.28	0
bin	0.3	0
bin	0.32	0
bin	0.34	0
bin	0.36	0
bin	0.38	0
bin	0.4	0
bin	0.42	0
bin	0.44	0
bin	0.46	0
bin	0.48	0
bin	0.5	0
scalar Net60.rte[0].routing drop:count 0
attr interpolationmode none
attr title "dropped packet byte length, count"
attr unit bytes
scalar Net60.rte[0].routing drop:sum 0
attr interpolationmode none
attr title "dropped packet byte length, sum"
attr unit bytes
scalar Net60.rte[0].queue[0] rxBytes:count 0
attr interpolationmode none
attr title "received packet byte length, count"
attr unit bytes
scalar Net60.rte[0].queue[0] rxBytes:sum 0
attr interpolationmode none
attr title "received packet byte length, sum"
attr unit bytes
statistic Net60.rte[0].queue[0] rxBytes:histogram
field count 0
field mean nan
field stddev nan
field min nan
field max nan
field sum 0
field sqrsum 0
attr interpolationmode none
attr title "received packet byte length, histogram"
attr unit bytes
bin	-inf	0
bin	0	0
bin	1	0
scalar Net60.rte[0].queue[0] txBytes:count 72
attr interpolationmode none
attr title "transmitting packet byte length, count"
attr unit bytes
scalar Net60.rte[0].queue[0] txBytes:sum 643865
attr interpolationmode none
attr title "transmitting packet byte length, sum"
attr unit bytes
statistic Net60.rte[0].queue[0] txBytes:histogram
field count 72
field mean 8942.5694444444
field stddev 4216.1368935281
field min 2076
field max 16362
field sum 643865
field sqrsum 7019890007
attr interpolationmode none
attr title "transmitting packet byte length, histogram"
attr unit bytes
bin	-inf	0
bin	0	0
bin	200	0
bin	400	0
bin	600	0
bin	800	0
bin	1000	0
bin	1200	0
bin	1400	0
bin	1600	0
bin	1800	0
bin	2000	1
bin	2200	1
bin	2400	0
bin	2600	1
bin	2800	2
bin	3000	2
bin	3200	1
bin	3400	1
bin	3600	2
bin	3800	1
bin	4000	1
bin	4200	1
bin	4400	2
bin	4600	1
bin	4800	0
bin	5000	1
bin	5200	1
bin	5400	1
bin	5600	1
bin	5800	0
bin	6000	0
bin	6200	2
bin	6400	0
bin	6600	1
bin	6800	3
bin	7000	0
bin	7200	2
bin	7400	2
bin	7600	0
bin	7800	1
bin	8000	0
bin	8200	0
bin	8400	0
bin	8600	2
bin	8800	1
bin	9000	3
bin	9200	2
bin	9400	1
bin	9600	0
bin	9800	0
bin	10000	1
bin	10200	1
bin	10400	1
bin	10600	1
bin	10800	2
bin	11000	2
bin	11200	1
bin	11400	3
bin	11600	0
bin	11800	1
bin	12000	0
bin	12200	1
bin	12400	1
bin	12600	0
bin	12800	0
bin	13000	2
bin	13200	2
bin	13400	0
bin	13600	1
bin	13800	0
bin	14000	2
bin	14200	1
bin	14400	0
bin	14600	0
bin	14800	0
bin	15000	0
bin	15200	0
bin	15400	3
bin	15600	1
bin	15800	0
bin	16000	1
bin	16200	3
bin	16400	0
bin	16600	0
bin	16800	0
bin	17000	0
bin	17200	0
bin	17400	0
bin	17600	0
bin	17800	0
bin	18000	0
bin	18200	0
bin	18400	0
bin	18600	0
bin	18800	0
bin	19000	0
bin	19200	0
bin	19400	0
bin	19600	0
bin	19800	0
bin	20000	0
scalar Net60.rte[0].queue[0] busy:timeavg 1.4646423183872e-005
attr interpolationmode sample-hold
attr title "server busy state, timeavg"
scalar Net60.rte[0].queue[0] qlen:timeavg 0
attr interpolationmode sample-hold
attr title "queue length, timeavg"
scalar Net60.rte[0].queue[0] qlen:max 0
attr interpolationmode sample-hold
attr title "queue length, max"
scalar Net60.rte[0].queue[0] drop:count 0
attr interpolationmode none
attr title "dropped packet byte length, count"
attr unit bytes
scalar Net60.rte[0].queue[0] drop:sum 0
attr interpolationmode none
attr title "dropped packet byte length, sum"
attr unit bytes
statistic Net60.rte[1].routing outputIf:histogram
field count 2359
field mean -0.85375158965663
field stddev 0.64616842195353
field min -1
field max 2
field sum -2014
field sqrsum 2704
attr interpolationmode none
attr title "output interface for each routed packet, histogram"
bin	-inf	0
bin	-2	0
bin	-1	2244
bin	0	0
bin	1	0
bin	2	115
bin	3	0
scalar Net60.rte[1].routing drop:count 0
attr interpolationmode none
attr title "dropped packet byte length, count"
attr unit bytes
scalar Net60.rte[1].routing drop:sum 0
attr interpolationmode none
attr title "dropped packet byte length, sum"
attr unit bytes
scalar Net60.rte[1].queue[0] rxBytes:count 72
attr interpolationmode none
attr title "received packet byte length, count"
attr unit bytes
scalar Net60.rte[1].queue[0] rxBytes:sum 643865
attr interpolationmode none
attr title "received packet byte length, sum"
attr unit bytes
statistic Net60.rte[1].queue[0] rxBytes:histogram
field count 72
field mean 8942.5694444444
field stddev 4216.1368935281
field min 2076
field max 16362
field sum 643865
field sqrsum 7019890007
attr interpolationmode none
attr title "received packet byte length, histogram"
attr unit bytes
bin	-inf	0
bin	0	0
bin	200	0
bin	400	0
bin	600	0
bin	800	0
bin	1000	0
bin	1200	0
bin	1400	0
bin	1600	0
bin	1800	0
bin	2000	1
bin	2200	1
bin	2400	0
bin	2600	1
bin	2800	2
bin	3000	2
bin	3200	1
bin	3400	1
bin	3600	2
bin	3800	1
bin	4000	1
bin	4200	1
bin	4400	2
bin	4600	1
bin	4800	0
bin	5000	1
bin	5200	1
bin	5400	1
bin	5600	1
bin	5800	0
bin	6000	0
bin	6200	2
bin	6400	0
bin	6600	1
bin	6800	3
bin	7000	0
bin	7200	2
bin	7400	2
bin	7600	0
bin	7800	1
bin	8000	0
bin	8200	0
bin	8400	0
bin	8600	2
bin	8800	1
bin	9000	3
bin	9200	2
bin	9400	1
bin	9600	0
bin	9800	0
bin	10000	1
bin	10200	1
bin	10400	1
bin	10600	1
bin	10800	2
bin	11000	2
bin	11200	1
bin	11400	3
bin	11600	0
bin	11800	1
bin	12000	0
bin	12200	1
bin	12400	1
bin	12600	0
bin	12800	0
bin	13000	2
bin	13200	2
bin	13400	0
bin	13600	1
bin	13800	0
bin	14000	2
bin	14200	1
bin	14400	0
bin	14600	0
bin	14800	0
bin	15000	0
bin	15200	0
bin	15400	3
bin	15600	1
bin	15800	0
bin	16000	1
bin	16200	3
bin	16400	0
bin	16600	0
bin	16800	0
bin	17000	0
bin	17200	0
bin	17400	0
bin	17600	0
bin	17800	0
bin	18000	0
bin	18200	0
bin	18400	0
bin	18600	0
bin	18800	0
bin	19000	0
bin	19200	0
bin	19400	0
bin	19600	0
bin	19800	0
bin	20000	0
scalar Net60.rte[1].queue[0] txBytes:count 0
attr interpolationmode none
attr title "transmitting packet byte length, count"
attr unit bytes
scalar Net60.rte[1].queue[0] txBytes:sum 0
attr interpolationmode none
attr title "transmitting packet byte length, sum"
attr unit bytes
statistic Net60.rte[1].queue[0] txBytes:histogram
field count 0
field mean nan
field stddev nan
field min nan
field max nan
field sum 0
field sqrsum 0
attr interpolationmode none
attr title "transmitting packet byte length, histogram"
attr unit bytes
bin	-inf	0
bin	0	0
bin	1	0
scalar Net60.rte[1].queue[0] busy:timeavg 0
attr interpolationmode sample-hold
attr title "server busy state, timeavg"
scalar Net60.rte[1].queue[0] qlen:timeavg 0
attr interpolationmode sample-hold
attr title "queue length, timeavg"
scalar Net60.rte[1].queue[0] qlen:max 0
attr interpolationmode sample-hold
attr title "queue length, max"
scalar Net60.rte[1].queue[0] drop:count 0
attr interpolationmode none
attr title "dropped packet byte length, count"
attr unit bytes
scalar Net60.rte[1].queue[0] drop:sum 0
attr interpolationmode none
attr title "dropped packet byte length, sum"
attr unit bytes
scalar Net60.rte[1].queue[1] rxBytes:count 79
attr interpolationmode none
attr title "received packet byte length, count"
attr unit bytes
scalar Net60.rte[1].queue[1] rxBytes:sum 741304
attr interpolationmode none
attr title "received packet byte length, sum"
attr unit bytes
statistic Net60.rte[1].queue[1] rxBytes:histogram
field count 79
field mean 9383.5949367089
field stddev 4058.4142176502
field min 2348
field max 16169
field sum 741304
field sqrsum 8240813086
attr interpolationmode none
attr title "received packet byte length, histogram"
attr unit bytes
bin	-inf	0
bin	0	0
bin	200	0
bin	400	0
bin	600	0
bin	800	0
bin	1000	0
bin	1200	0
bin	1400	0
bin	1600	0
bin	1800	0
bin	2000	0
bin	2200	2
bin	2400	2
bin	2600	0
bin	2800	2
bin	3000	2
bin	3200	0
bin	3400	1
bin	3600	0
bin	3800	0
bin	4000	0
bin	4200	0
bin	4400	2
bin	4600	0
bin	4800	1
bin	5000	2
bin	5200	3
bin	5400	1
bin	5600	1
bin	5800	0
bin	6000	3
bin	6200	1
bin	6400	3
bin	6600	2
bin	6800	2
bin	7000	0
bin	7200	0
bin	7400	1
bin	7600	2
bin	7800	1
bin	8000	0
bin	8200	0
bin	8400	1
bin	8600	0
bin	8800	0
bin	9000	0
bin	9200	2
bin	9400	2
bin	9600	1
bin	9800	0
bin	10000	1
bin	10200	0
bin	10400	0
bin	10600	1
bin	10800	1
bin	11000	2
bin	11200	0
bin	11400	3
bin	11600	3
bin	11800	1
bin	12000	2
bin	12200	0
bin	12400	2
bin	12600	3
bin	12800	1
bin	13000	2
bin	13200	1
bin	13400	4
bin	13600	0
bin	13800	1
bin	14000	2
bin	14200	3
bin	14400	0
bin	14600	0
bin	14800	1
bin	15000	1
bin	15200	0
bin	15400	1
bin	15600	2
bin	15800	0
bin	16000	1
bin	16200	0
bin	16400	0
bin	16600	0
bin	16800	0
bin	17000	0
bin	17200	0
bin	17400	0
bin	17600	0
bin	17800	0
bin	18000	0
bin	18200	0
bin	18400	0
bin	18600	0
bin	18800	0
bin	19000	0
bin	19200	0
scalar Net60.rte[1].queue[1] txBytes:count 0
attr interpolationmode none
attr title "transmitting packet byte length, count"
attr unit bytes
scalar Net60.rte[1].queue[1] txBytes:sum 0
attr interpolationmode none
attr title "transmitting packet byte length, sum"
attr unit bytes
statistic Net60.rte[1].queue[1] txBytes:histogram
field count 0
field mean nan
field stddev nan
field min nan
field max nan
field sum 0
field sqrsum 0
attr interpolationmode none
attr title "transmitting packet byte length, histogram"
attr unit bytes
bin	-inf	0
bin	0	0
bin	1	0
scalar Net60.rte[1].queue[1] busy:timeavg 0
attr interpolationmode sample-hold
attr title "server busy state, timeavg"
scalar Net60.rte[1].queue[1] qlen:timeavg 0
attr interpolationmode sample-hold
attr title "queue length, timeavg"
scalar Net60.rte[1].queue[1] qlen:max 0
attr interpolationmode sample-hold
attr title "queue length, max"
scalar Net60.rte[1].queue[1] drop:count 0
attr interpolationmode none
attr title "dropped packet byte length, count"
attr unit bytes
scalar Net60.rte[1].queue[1] drop:sum 0
attr interpolationmode none
attr title "dropped packet byte length, sum"
attr unit bytes
scalar Net60.rte[1].queue[2] rxBytes:count 2128
attr interpolationmode none
attr title "received packet byte length, count"
attr unit bytes
scalar Net60.rte[1].queue[2] rxBytes:sum 19779877
attr interpolationmode none
attr title "received packet byte length, sum"
attr unit bytes
statistic Net60.rte[1].queue[2] rxBytes:histogram
field count 2128
field mean 9295.054981203
field stddev 4147.2428286419
field min 2058
field max 16379
field sum 19779877
field sqrsum 220438642527
attr interpolationmode none
attr title "received packet byte length, histogram"
attr unit bytes
bin	-inf	0
bin	0	0
bin	200	0
bin	400	0
bin	600	0
bin	800	0
bin	1000	0
bin	1200	0
bin	1400	0
bin	1600	0
bin	1800	0
bin	2000	19
bin	2200	26
bin	2400	24
bin	2600	29
bin	2800	27
bin	3000	26
bin	3200	30
bin	3400	38
bin	3600	35
bin	3800	32
bin	4000	37
bin	4200	30
bin	4400	29
bin	4600	17
bin	4800	31
bin	5000	16
bin	5200	21
bin	5400	40
bin	5600	26
bin	5800	42
bin	6000	25
bin	6200	28
bin	6400	37
bin	6600	31
bin	6800	37
bin	7000	30
bin	7200	34
bin	7400	33
bin	7600	34
bin	7800	26
bin	8000	19
bin	8200	30
bin	8400	34
bin	8600	32
bin	8800	19
bin	9000	20
bin	9200	29
bin	9400	39
bin	9600	23
bin	9800	36
bin	10000	20
bin	10200	34
bin	10400	23
bin	10600	22
bin	10800	35
bin	11000	29
bin	11200	26
bin	11400	31
bin	11600	31
bin	11800	30
bin	12000	29
bin	12200	33
bin	12400	38
bin	12600	30
bin	12800	26
bin	13000	26
bin	13200	34
bin	13400	40
bin	13600	28
bin	13800	28
bin	14000	29
bin	14200	25
bin	14400	33
bin	14600	37
bin	14800	25
bin	15000	30
bin	15200	30
bin	15400	29
bin	15600	34
bin	15800	28
bin	16000	35
bin	16200	29
bin	16400	0
bin	16600	0
bin	16800	0
bin	17000	0
bin	17200	0
bin	17400	0
bin	17600	0
bin	17800	0
bin	18000	0
bin	18200	0
bin	18400	0
bin	18600	0
bin	18800	0
bin	19000	0
bin	19200	0
bin	19400	0
bin	19600	0
bin	19800	0
bin	20000	0
scalar Net60.rte[1].queue[2] txBytes:count 115
attr interpolationmode none
attr title "transmitting packet byte length, count"
attr unit bytes
scalar Net60.rte[1].queue[2] txBytes:sum 1068803
attr interpolationmode none
attr title "transmitting packet byte length, sum"
attr unit bytes
statistic Net60.rte[1].queue[2] txBytes:histogram
field count 115
field mean 9293.9391304348
field stddev 4180.7714835921
field min 2348
field max 16362
field sum 1068803
field sqrsum 11925978947
attr interpolationmode none
attr title "transmitting packet byte length, histogram"
attr unit bytes
bin	-inf	0
bin	0	0
bin	200	0
bin	400	0
bin	600	0
bin	800	0
bin	1000	0
bin	1200	0
bin	1400	0
bin	1600	0
bin	1800	0
bin	2000	0
bin	2200	3
bin	2400	3
bin	2600	0
bin	2800	3
bin	3000	3
bin	3200	0
bin	3400	1
bin	3600	2
bin	3800	2
bin	4000	1
bin	4200	2
bin	4400	2
bin	4600	0
bin	4800	1
bin	5000	2
bin	5200	2
bin	5400	1
bin	5600	0
bin	5800	0
bin	6000	2
bin	6200	2
bin	6400	4
bin	6600	2
bin	6800	1
bin	7000	0
bin	7200	2
bin	7400	2
bin	7600	3
bin	7800	2
bin	8000	1
bin	8200	0
bin	8400	0
bin	8600	3
bin	8800	4
bin	9000	0
bin	9200	1
bin	9400	1
bin	9600	2
bin	9800	2
bin	10000	2
bin	10200	2
bin	10400	1
bin	10600	3
bin	10800	0
bin	11000	1
bin	11200	1
bin	11400	4
bin	11600	1
bin	11800	1
bin	12000	2
bin	12200	1
bin	12400	3
bin	12600	2
bin	12800	0
bin	13000	2
bin	13200	4
bin	13400	2
bin	13600	2
bin	13800	0
bin	14000	2
bin	14200	2
bin	14400	2
bin	14600	0
bin	14800	1
bin	15000	2
bin	15200	0
bin	15400	3
bin	15600	2
bin	15800	1
bin	16000	3
bin	16200	1
bin	16400	0
bin	16600	0
bin	16800	0
bin	17000	0
bin	17200	0
bin	17400	0
bin	17600	0
bin	17800	0
bin	18000	0
bin	18200	0
bin	18400	0
bin	18600	0
bin	18800	0
bin	19000	0
bin	19200	0
bin	19400	0
bin	19600	0
bin	19800	0
bin	20000	0
scalar Net60.rte[1].queue[2] busy:timeavg 2.4312769040391e-005
attr interpolationmode sample-hold
attr title "server busy state, timeavg"
scalar Net60.rte[1].queue[2] qlen:timeavg 0
attr interpolationmode sample-hold
attr title "queue length, timeavg"
scalar Net60.rte[1].queue[2] qlen:max 0
attr interpolationmode sample-hold
attr title "queue length, max"
scalar Net60.rte[1].queue[2] drop:count 0
attr interpolationmode none
attr title "dropped packet byte length, count"
attr unit bytes
scalar Net60.rte[1].queue[2] drop:sum 0
attr interpolationmode none
attr title "dropped packet byte length, sum"
attr unit bytes
statistic Net60.rte[2].routing outputIf:histogram
field count 79
field mean 0
field stddev 0
field min 0
field max 0
field sum 0
field sqrsum 0
attr interpolationmode none
attr title "output interface for each routed packet, histogram"
bin	-inf	0
bin	-0.5	0
bin	-0.48	0
bin	-0.46	0
bin	-0.44	0
bin	-0.42	0
bin	-0.4	0
bin	-0.38	0
bin	-0.36	0
bin	-0.34	0
bin	-0.32	0
bin	-0.3	0
bin	-0.28	0
bin	-0.26	0
bin	-0.24	0
bin	-0.22	0
bin	-0.2	0
bin	-0.18	0
bin	-0.16	0
bin	-0.14	0
bin	-0.12	0
bin	-0.1	0
bin	-0.08	0
bin	-0.06	0
bin	-0.04	0
bin	-0.02	0
bin	0	79
bin	0.02	0
bin	0.04	0
bin	0.06	0
bin	0.08	0
bin	0.1	0
bin	0.12	0
bin	0.14	0
bin	0.16	0
bin	0.18	0
bin	0.2	0
bin	0.22	0
bin	0.24	0
bin	0.26	0
bin	0.28	0
bin	0.3	0
bin	0.32	0
bin	0.34	0
bin	0.36	0
bin	0.38	0
bin	0.4	0
bin	0.42	0
bin	0.44	0
bin	0.46	0
bin	0.48	0
bin	0.5	0
scalar Net60.rte[2].routing drop:count 0
attr interpolationmode none
attr title "dropped packet byte length, count"
attr unit bytes
scalar Net60.rte[2].routing drop:sum 0
attr interpolationmode none
attr title "dropped packet byte length, sum"
attr unit bytes
scalar Net60.rte[2].queue[0] rxBytes:count 0
attr interpolationmode none
attr title "received packet byte length, count"
attr unit bytes
scalar Net60.rte[2].queue[0] rxBytes:sum 0
attr interpolationmode none
attr title "received packet byte length, sum"
attr unit bytes
statistic Net60.rte[2].queue[0] rxBytes:histogram
field count 0
field mean nan
field stddev nan
field min nan
field max nan
field sum 0
field sqrsum 0
attr interpolationmode none
attr title "received packet byte length, histogram"
attr unit bytes
bin	-inf	0
bin	0	0
bin	1	0
scalar Net60.rte[2].queue[0] txBytes:count 79
attr interpolationmode none
attr title "transmitting packet byte length, count"
attr unit bytes
scalar Net60.rte[2].queue[0] txBytes:sum 741304
attr interpolationmode none
attr title "transmitting packet byte length, sum"
attr unit bytes
statistic Net60.rte[2].queue[0] txBytes:histogram
field count 79
field mean 9383.5949367089
field stddev 4058.4142176502
field min 2348
field max 16169
field sum 741304
field sqrsum 8240813086
attr interpolationmode none
attr title "transmitting packet byte length, histogram"
attr unit bytes
bin	-inf	0
bin	0	0
bin	200	0
bin	400	0
bin	600	0
bin	800	0
bin	1000	0
bin	1200	0
bin	1400	0
bin	1600	0
bin	1800	0
bin	2000	0
bin	2200	2
bin	2400	2
bin	2600	0
bin	2800	2
bin	3000	2
bin	3200	0
bin	3400	1
bin	3600	0
bin	3800	0
bin	4000	0
bin	4200	0
bin	4400	2
bin	4600	0
bin	4800	1
bin	5000	2
bin	5200	3
bin	5400	1
bin	5600	1
bin	5800	0
bin	6000	3
bin	6200	1
bin	6400	3
bin	6600	2
bin	6800	2
bin	7000	0
bin	7200	0
bin	7400	1
bin	7600	2
bin	7800	1
bin	8000	0
bin	8200	0
bin	8400	1
bin	8600	0
bin	8800	0
bin	9000	0
bin	9200	2
bin	9400	2
bin	9600	1
bin	9800	0
bin	10000	1
bin	10200	0
bin	10400	0
bin	10600	1
bin	10800	1
bin	11000	2
bin	11200	0
bin	11400	3
bin	11600	3
bin	11800	1
bin	12000	2
bin	12200	0
bin	12400	2
bin	12600	3
bin	12800	1
bin	13000	2
bin	13200	1
bin	13400	4
bin	13600	0
bin	13800	1
bin	14000	2
bin	14200	3
bin	14400	0
bin	14600	0
bin	14800	1
bin	15000	1
bin	15200	0
bin	15400	1
bin	15600	2
bin	15800	0
bin	16000	1
bin	16200	0
bin	16400	0
bin	16600	0
bin	16800	0
bin	17000	0
bin	17200	0
bin	17400	0
bin	17600	0
bin	17800	0
bin	18000	0
bin	18200	0
bin	18400	0
bin	18600	0
bin	18800	0
bin	19000	0
bin	19200	0
scalar Net60.rte[2].queue[0] busy:timeavg 1.6862932589746e-005
attr interpolationmode sample-hold
attr title "server busy state, timeavg"
scalar Net60.rte[2].queue[0] qlen:timeavg 0
attr interpolationmode sample-hold
attr title "queue length, timeavg"
scalar Net60.rte[2].queue[0] qlen:max 0
attr interpolationmode sample-hold
attr title "queue length, max"
scalar Net60.rte[2].queue[0] drop:count 0
attr interpolationmode none
attr title "dropped packet byte length, count"
attr unit bytes
scalar Net60.rte[2].queue[0] drop:sum 0
attr interpolationmode none
attr title "dropped packet byte length, sum"
attr unit bytes
statistic Net60.rte[3].routing outputIf:histogram
field count 83
field mean 0
field stddev 0
field min 0
field max 0
field sum 0
field sqrsum 0
attr interpolationmode none
attr title "output interface for each routed packet, histogram"
bin	-inf	0
bin	-0.5	0
bin	-0.48	0
bin	-0.46	0
bin	-0.44	0
bin	-0.42	0
bin	-0.4	0
bin	-0.38	0
bin	-0.36	0
bin	-0.34	0
bin	-0.32	0
bin	-0.3	0
bin	-0.28	0
bin	-0.26	0
bin	-0.24	0
bin	-0.22	0
bin	-0.2	0
bin	-0.18	0
bin	-0.16	0
bin	-0.14	0
bin	-0.12	0
bin	-0.1	0
bin	-0.08	0
bin	-0.06	0
bin	-0.04	0
bin	-0.02	0
bin	0	83
bin	0.02	0
bin	0.04	0
bin	0.06	0
bin	0.08	0
bin	0.1	0
bin	0.12	0
bin	0.14	0
bin	0.16	0
bin	0.18	0
bin	0.2	0
bin	0.22	0
bin	0.24	0
bin	0.26	0
bin	0.28	0
bin	0.3	0
bin	0.32	0
bin	0.34	0
bin	0.36	0
bin	0.38	0
bin	0.4	0
bin	0.42	0
bin	0.44	0
bin	0.46	0
bin	0.48	0
bin	0.5	0
scalar Net60.rte[3].routing drop:count 0
attr interpolationmode none
attr title "dropped packet byte length, count"
attr unit bytes
scalar Net60.rte[3].routing drop:sum 0
attr interpolationmode none
attr title "dropped packet byte length, sum"
attr unit bytes
scalar Net60.rte[3].queue[0] rxBytes:count 0
attr interpolationmode none
attr title "received packet byte length, count"
attr unit bytes
scalar Net60.rte[3].queue[0] rxBytes:sum 0
attr interpolationmode none
attr title "received packet byte length, sum"
attr unit bytes
statistic Net60.rte[3].queue[0] rxBytes:histogram
field count 0
field mean nan
field stddev nan
field min nan
field max nan
field sum 0
field sqrsum 0
attr interpolationmode none
attr title "received packet byte length, histogram"
attr unit bytes
bin	-inf	0
bin	0	0
bin	1	0
scalar Net60.rte[3].queue[0] txBytes:count 83
attr interpolationmode none
attr title "transmitting packet byte length, count"
attr unit bytes
scalar Net60.rte[3].queue[0] txBytes:sum 744177
attr interpolationmode none
attr title "transmitting packet byte length, sum"
attr unit bytes
statistic Net60.rte[3].queue[0] txBytes:histogram
field count 83
field mean 8965.9879518072
field stddev 4684.5275537979
field min 2061
field max 16278
field sum 744177
field sqrsum 8471755485
attr interpolationmode none
attr title "transmitting packet byte length, histogram"
attr unit bytes
bin	-inf	0
bin	0	0
bin	200	0
bin	400	0
bin	600	0
bin	800	0
bin	1000	0
bin	1200	0
bin	1400	0
bin	1600	0
bin	1800	0
bin	2000	1
bin	2200	3
bin	2400	0
bin	2600	4
bin	2800	1
bin	3000	2
bin	3200	3
bin	3400	1
bin	3600	2
bin	3800	3
bin	4000	1
bin	4200	0
bin	4400	0
bin	4600	0
bin	4800	2
bin	5000	0
bin	5200	0
bin	5400	4
bin	5600	2
bin	5800	3
bin	6000	0
bin	6200	0
bin	6400	0
bin	6600	0
bin	6800	2
bin	7000	1
bin	7200	0
bin	7400	0
bin	7600	2
bin	7800	0
bin	8000	1
bin	8200	2
bin	8400	1
bin	8600	1
bin	8800	1
bin	9000	1
bin	9200	0
bin	9400	0
bin	9600	1
bin	9800	1
bin	10000	0
bin	10200	3
bin	10400	1
bin	10600	0
bin	10800	1
bin	11000	1
bin	11200	1
bin	11400	1
bin	11600	1
bin	11800	1
bin	12000	1
bin	12200	1
bin	12400	1
bin	12600	1
bin	12800	1
bin	13000	1
bin	13200	0
bin	13400	2
bin	13600	0
bin	13800	0
bin	14000	1
bin	14200	1
bin	14400	1
bin	14600	1
bin	14800	3
bin	15000	1
bin	15200	3
bin	15400	3
bin	15600	1
bin	15800	2
bin	16000	1
bin	16200	1
bin	16400	0
bin	16600	0
bin	16800	0
bin	17000	0
bin	17200	0
bin	17400	0
bin	17600	0
bin	17800	0
bin	18000	0
bin	18200	0
bin	18400	0
bin	18600	0
bin	18800	0
bin	19000	0
bin	19200	0
bin	19400	0
bin	19600	0
bin	19800	0
bin	20000	0
scalar Net60.rte[3].queue[0] busy:timeavg 1.6928286621736e-005
attr interpolationmode sample-hold
attr title "server busy state, timeavg"
scalar Net60.rte[3].queue[0] qlen:timeavg 0
attr interpolationmode sample-hold
attr title "queue length, timeavg"
scalar Net60.rte[3].queue[0] qlen:max 0
attr interpolationmode sample-hold
attr title "queue length, max"
scalar Net60.rte[3].queue[0] drop:count 0
attr interpolationmode none
attr title "dropped packet byte length, count"
attr unit bytes
scalar Net60.rte[3].queue[0] drop:sum 0
attr interpolationmode none
attr title "dropped packet byte length, sum"
attr unit bytes
statistic Net60.rte[4].routing outputIf:histogram
field count 2423
field mean 0.24349979364424
field stddev 0.65412845103236
field min 0
field max 2
field sum 590
field sqrsum 1180
attr interpolationmode none
attr title "output interface for each routed packet, histogram"
bin	-inf	0
bin	0	2128
bin	1	0
bin	2	295
bin	3	0
scalar Net60.rte[4].routing drop:count 0
attr interpolationmode none
attr title "dropped packet byte length, count"
attr unit bytes
scalar Net60.rte[4].routing drop:sum 0
attr interpolationmode none
attr title "dropped packet byte length, sum"
attr unit bytes
scalar Net60.rte[4].queue[0] rxBytes:count 115
attr interpolationmode none
attr title "received packet byte length, count"
attr unit bytes
scalar Net60.rte[4].queue[0] rxBytes:sum 1068803
attr interpolationmode none
attr title "received packet byte length, sum"
attr unit bytes
statistic Net60.rte[4].queue[0] rxBytes:histogram
field count 115
field mean 9293.9391304348
field stddev 4180.7714835921
field min 2348
field max 16362
field sum 1068803
field sqrsum 11925978947
attr interpolationmode none
attr title "received packet byte length, histogram"
attr unit bytes
bin	-inf	0
bin	0	0
bin	200	0
bin	400	0
bin	600	0
bin	800	0
bin	1000	0
bin	1200	0
bin	1400	0
bin	1600	0
bin	1800	0
bin	2000	0
bin	2200	3
bin	2400	3
bin	2600	0
bin	2800	3
bin	3000	3
bin	3200	0
bin	3400	1
bin	3600	2
bin	3800	2
bin	4000	1
bin	4200	2
bin	4400	2
bin	4600	0
bin	4800	1
bin	5000	2
bin	5200	2
bin	5400	1
bin	5600	0
bin	5800	0
bin	6000	2
bin	6200	2
bin	6400	4
bin	6600	2
bin	6800	1
bin	7000	0
bin	7200	2
bin	7400	2
bin	7600	3
bin	7800	2
bin	8000	1
bin	8200	0
bin	8400	0
bin	8600	3
bin	8800	4
bin	9000	0
bin	9200	1
bin	9400	1
bin	9600	2
bin	9800	2
bin	10000	2
bin	10200	2
bin	10400	1
bin	10600	3
bin	10800	0
bin	11000	1
bin	11200	1
bin	11400	4
bin	11600	1
bin	11800	1
bin	12000	2
bin	12200	1
bin	12400	3
bin	12600	2
bin	12800	0
bin	13000	2
bin	13200	4
bin	13400	2
bin	13600	2
bin	13800	0
bin	14000	2
bin	14200	2
bin	14400	2
bin	14600	0
bin	14800	1
bin	15000	2
bin	15200	0
bin	15400	3
bin	15600	2
bin	15800	1
bin	16000	3
bin	16200	1
bin	16400	0
bin	16600	0
bin	16800	0
bin	17000	0
bin	17200	0
bin	17400	0
bin	17600	0
bin	17800	0
bin	18000	0
bin	18200	0
bin	18400	0
bin	18600	0
bin	18800	0
bin	19000	0
bin	19200	0
bin	19400	0
bin	19600	0
bin	19800	0
bin	20000	0
scalar Net60.rte[4].queue[0] txBytes:count 2128
attr interpolationmode none
attr title "transmitting packet byte length, count"
attr unit bytes
scalar Net60.rte[4].queue[0] txBytes:sum 19779877
attr interpolationmode none
attr title "transmitting packet byte length, sum"
attr unit bytes
statistic Net60.rte[4].queue[0] txBytes:histogram
field count 2128
field mean 9295.054981203
field stddev 4147.2428286419
field min 2058
field max 16379
field sum 19779877
field sqrsum 220438642527
attr interpolationmode none
attr title "transmitting packet byte length, histogram"
attr unit bytes
bin	-inf	0
bin	0	0
bin	200	0
bin	400	0
bin	600	0
bin	800	0
bin	1000	0
bin	1200	0
bin	1400	0
bin	1600	0
bin	1800	0
bin	2000	19
bin	2200	26
bin	2400	24
bin	2600	29
bin	2800	27
bin	3000	26
bin	3200	30
bin	3400	38
bin	3600	35
bin	3800	32
bin	4000	37
bin	4200	30
bin	4400	29
bin	4600	17
bin	4800	31
bin	5000	16
bin	5200	21
bin	5400	40
bin	5600	26
bin	5800	42
bin	6000	25
bin	6200	28
bin	6400	37
bin	6600	31
bin	6800	37
bin	7000	30
bin	7200	34
bin	7400	33
bin	7600	34
bin	7800	26
bin	8000	19
bin	8200	30
bin	8400	34
bin	8600	32
bin	8800	19
bin	9000	20
bin	9200	29
bin	9400	39
bin	9600	23
bin	9800	36
bin	10000	20
bin	10200	34
bin	10400	23
bin	10600	22
bin	10800	35
bin	11000	29
bin	11200	26
bin	11400	31
bin	11600	31
bin	11800	30
bin	12000	29
bin	12200	33
bin	12400	38
bin	12600	30
bin	12800	26
bin	13000	26
bin	13200	34
bin	13400	40
bin	13600	28
bin	13800	28
bin	14000	29
bin	14200	25
bin	14400	33
bin	14600	37
bin	14800	25
bin	15000	30
bin	15200	30
bin	15400	29
bin	15600	34
bin	15800	28
bin	16000	35
bin	16200	29
bin	16400	0
bin	16600	0
bin	16800	0
bin	17000	0
bin	17200	0
bin	17400	0
bin	17600	0
bin	17800	0
bin	18000	0
bin	18200	0
bin	18400	0
bin	18600	0
bin	18800	0
bin	19000	0
bin	19200	0
bin	19400	0
bin	19600	0
bin	19800	0
bin	20000	0
scalar Net60.rte[4].queue[0] busy:timeavg 0.00044994594995368
attr interpolationmode sample-hold
attr title "server busy state, timeavg"
scalar Net60.rte[4].queue[0] qlen:timeavg 1.1173900501272e-006
attr interpolationmode sample-hold
attr title "queue length, timeavg"
scalar Net60.rte[4].queue[0] qlen:max 1
attr interpolationmode sample-hold
attr title "queue length, max"
scalar Net60.rte[4].queue[0] drop:count 0
attr interpolationmode none
attr title "dropped packet byte length, count"
attr unit bytes
scalar Net60.rte[4].queue[0] drop:sum 0
attr interpolationmode none
attr title "dropped packet byte length, sum"
attr unit bytes
scalar Net60.rte[4].queue[1] rxBytes:count 83
attr interpolationmode none
attr title "received packet byte length, count"
attr unit bytes
scalar Net60.rte[4].queue[1] rxBytes:sum 744177
attr interpolationmode none
attr title "received packet byte length, sum"
attr unit bytes
statistic Net60.rte[4].queue[1] rxBytes:histogram
field count 83
field mean 8965.9879518072
field stddev 4684.5275537979
field min 2061
field max 16278
field sum 744177
field sqrsum 8471755485
attr interpolationmode none
attr title "received packet byte length, histogram"
attr unit bytes
bin	-inf	0
bin	0	0
bin	200	0
bin	400	0
bin	600	0
bin	800	0
bin	1000	0
bin	1200	0
bin	1400	0
bin	1600	0
bin	1800	0
bin	2000	1
bin	2200	3
bin	2400	0
bin	2600	4
bin	2800	1
bin	3000	2
bin	3200	3
bin	3400	1
bin	3600	2
bin	3800	3
bin	4000	1
bin	4200	0
bin	4400	0
bin	4600	0
bin	4800	2
bin	5000	0
bin	5200	0
bin	5400	4
bin	5600	2
bin	5800	3
bin	6000	0
bin	6200	0
bin	6400	0
bin	6600	0
bin	6800	2
bin	7000	1
bin	7200	0
bin	7400	0
bin	7600	2
bin	7800	0
bin	8000	1
bin	8200	2
bin	8400	1
bin	8600	1
bin	8800	1
bin	9000	1
bin	9200	0
bin	9400	0
bin	9600	1
bin	9800	1
bin	10000	0
bin	10200	3
bin	10400	1
bin	10600	0
bin	10800	1
bin	11000	1
bin	11200	1
bin	11400	1
bin	11600	1
bin	11800	1
bin	12000	1
bin	12200	1
bin	12400	1
bin	12600	1
bin	12800	1
bin	13000	1
bin	13200	0
bin	13400	2
bin	13600	0
bin	13800	0
bin	14000	1
bin	14200	1
bin	14400	1
bin	14600	1
bin	14800	3
bin	15000	1
bin	15200	3
bin	15400	3
bin	15600	1
bin	15800	2
bin	16000	1
bin	16200	1
bin	16400	0
bin	16600	0
bin	16800	0
bin	17000	0
bin	17200	0
bin	17400	0
bin	17600	0
bin	17800	0
bin	18000	0
bin	18200	0
bin	18400	0
bin	18600	0
bin	18800	0
bin	19000	0
bin	19200	0
bin	19400	0
bin	19600	0
bin	19800	0
bin	20000	0
scalar Net60.rte[4].queue[1] txBytes:count 0
attr interpolationmode none
attr title "transmitting packet byte length, count"
attr unit bytes
scalar Net60.rte[4].queue[1] txBytes:sum 0
attr interpolationmode none
attr title "transmitting packet byte length, sum"
attr unit bytes
statistic Net60.rte[4].queue[1] txBytes:histogram
field count 0
field mean nan
field stddev nan
field min nan
field max nan
field sum 0
field sqrsum 0
attr interpolationmode none
attr title "transmitting packet byte length, histogram"
attr unit bytes
bin	-inf	0
bin	0	0
bin	1	0
scalar Net60.rte[4].queue[1] busy:timeavg 0
attr interpolationmode sample-hold
attr title "server busy state, timeavg"
scalar Net60.rte[4].queue[1] qlen:timeavg 0
attr interpolationmode sample-hold
attr title "queue length, timeavg"
scalar Net60.rte[4].queue[1] qlen:max 0
attr interpolationmode sample-hold
attr title "queue length, max"
scalar Net60.rte[4].queue[1] drop:count 0
attr interpolationmode none
attr title "dropped packet byte length, count"
attr unit bytes
scalar Net60.rte[4].queue[1] drop:sum 0
attr interpolationmode none
attr title "dropped packet byte length, sum"
attr unit bytes
scalar Net60.rte[4].queue[2] rxBytes:count 1734
attr interpolationmode none
attr title "received packet byte length, count"
attr unit bytes
scalar Net60.rte[4].queue[2] rxBytes:sum 16105813
attr interpolationmode none
attr title "received packet byte length, sum"
attr unit bytes
statistic Net60.rte[4].queue[2] rxBytes:histogram
field count 1734
field mean 9288.2427912341
field stddev 4159.9343956211
field min 2058
field max 16379
field sum 16105813
field sqrsum 179584360381
attr interpolationmode none
attr title "received packet byte length, histogram"
attr unit bytes
bin	-inf	0
bin	0	0
bin	200	0
bin	400	0
bin	600	0
bin	800	0
bin	1000	0
bin	1200	0
bin	1400	0
bin	1600	0
bin	1800	0
bin	2000	16
bin	2200	22
bin	2400	18
bin	2600	26
bin	2800	25
bin	3000	20
bin	3200	26
bin	3400	30
bin	3600	26
bin	3800	23
bin	4000	28
bin	4200	25
bin	4400	26
bin	4600	14
bin	4800	24
bin	5000	13
bin	5200	18
bin	5400	34
bin	5600	22
bin	5800	33
bin	6000	20
bin	6200	25
bin	6400	31
bin	6600	24
bin	6800	34
bin	7000	26
bin	7200	27
bin	7400	25
bin	7600	31
bin	7800	21
bin	8000	15
bin	8200	25
bin	8400	31
bin	8600	22
bin	8800	15
bin	9000	16
bin	9200	23
bin	9400	27
bin	9600	16
bin	9800	29
bin	10000	17
bin	10200	25
bin	10400	19
bin	10600	18
bin	10800	30
bin	11000	24
bin	11200	24
bin	11400	26
bin	11600	26
bin	11800	24
bin	12000	22
bin	12200	21
bin	12400	35
bin	12600	23
bin	12800	22
bin	13000	19
bin	13200	29
bin	13400	31
bin	13600	24
bin	13800	25
bin	14000	25
bin	14200	21
bin	14400	27
bin	14600	27
bin	14800	18
bin	15000	25
bin	15200	28
bin	15400	23
bin	15600	29
bin	15800	21
bin	16000	31
bin	16200	23
bin	16400	0
bin	16600	0
bin	16800	0
bin	17000	0
bin	17200	0
bin	17400	0
bin	17600	0
bin	17800	0
bin	18000	0
bin	18200	0
bin	18400	0
bin	18600	0
bin	18800	0
bin	19000	0
bin	19200	0
bin	19400	0
bin	19600	0
bin	19800	0
bin	20000	0
scalar Net60.rte[4].queue[2] txBytes:count 295
attr interpolationmode none
attr title "transmitting packet byte length, count"
attr unit bytes
scalar Net60.rte[4].queue[2] txBytes:sum 2800385
attr interpolationmode none
attr title "transmitting packet byte length, sum"
attr unit bytes
statistic Net60.rte[4].queue[2] txBytes:histogram
field count 295
field mean 9492.8305084746
field stddev 4154.3038749543
field min 2061
field max 16362
field sum 2800385
field sqrsum 31657502925
attr interpolationmode none
attr title "transmitting packet byte length, histogram"
attr unit bytes
bin	-inf	0
bin	0	0
bin	200	0
bin	400	0
bin	600	0
bin	800	0
bin	1000	0
bin	1200	0
bin	1400	0
bin	1600	0
bin	1800	0
bin	2000	1
bin	2200	5
bin	2400	4
bin	2600	4
bin	2800	6
bin	3000	5
bin	3200	3
bin	3400	3
bin	3600	4
bin	3800	6
bin	4000	1
bin	4200	5
bin	4400	3
bin	4600	3
bin	4800	1
bin	5000	5
bin	5200	3
bin	5400	4
bin	5600	3
bin	5800	2
bin	6000	5
bin	6200	5
bin	6400	6
bin	6600	4
bin	6800	4
bin	7000	3
bin	7200	4
bin	7400	3
bin	7600	6
bin	7800	3
bin	8000	5
bin	8200	2
bin	8400	2
bin	8600	6
bin	8800	8
bin	9000	4
bin	9200	2
bin	9400	1
bin	9600	4
bin	9800	4
bin	10000	6
bin	10200	5
bin	10400	2
bin	10600	5
bin	10800	3
bin	11000	3
bin	11200	4
bin	11400	7
bin	11600	3
bin	11800	5
bin	12000	4
bin	12200	7
bin	12400	8
bin	12600	5
bin	12800	3
bin	13000	4
bin	13200	6
bin	13400	4
bin	13600	5
bin	13800	1
bin	14000	4
bin	14200	4
bin	14400	5
bin	14600	3
bin	14800	6
bin	15000	3
bin	15200	3
bin	15400	7
bin	15600	4
bin	15800	4
bin	16000	5
bin	16200	5
bin	16400	0
bin	16600	0
bin	16800	0
bin	17000	0
bin	17200	0
bin	17400	0
bin	17600	0
bin	17800	0
bin	18000	0
bin	18200	0
bin	18400	0
bin	18600	0
bin	18800	0
bin	19000	0
bin	19200	0
bin	19400	0
bin	19600	0
bin	19800	0
bin	20000	0
scalar Net60.rte[4].queue[2] busy:timeavg 6.370221053756e-005
attr interpolationmode sample-hold
attr title "server busy state, timeavg"
scalar Net60.rte[4].queue[2] qlen:timeavg 0
attr interpolationmode sample-hold
attr title "queue length, timeavg"
scalar Net60.rte[4].queue[2] qlen:max 0
attr interpolationmode sample-hold
attr title "queue length, max"
scalar Net60.rte[4].queue[2] drop:count 0
attr interpolationmode none
attr title "dropped packet byte length, count"
attr unit bytes
scalar Net60.rte[4].queue[2] drop:sum 0
attr interpolationmode none
attr title "dropped packet byte length, sum"
attr unit bytes
scalar Net60.rte[4].queue[3] rxBytes:count 402
attr interpolationmode none
attr title "received packet byte length, count"
attr unit bytes
scalar Net60.rte[4].queue[3] rxBytes:sum 3784469
attr interpolationmode none
attr title "received packet byte length, sum"
attr unit bytes
statistic Net60.rte[4].queue[3] rxBytes:histogram
field count 402
field mean 9414.1019900498
field stddev 4002.5247682862
field min 2091
field max 16355
field sum 3784469
field sqrsum 42051479157
attr interpolationmode none
attr title "received packet byte length, histogram"
attr unit bytes
bin	-inf	0
bin	0	0
bin	200	0
bin	400	0
bin	600	0
bin	800	0
bin	1000	0
bin	1200	0
bin	1400	0
bin	1600	0
bin	1800	0
bin	2000	3
bin	2200	3
bin	2400	4
bin	2600	2
bin	2800	4
bin	3000	5
bin	3200	3
bin	3400	8
bin	3600	8
bin	3800	8
bin	4000	7
bin	4200	6
bin	4400	4
bin	4600	6
bin	4800	3
bin	5000	5
bin	5200	3
bin	5400	4
bin	5600	4
bin	5800	8
bin	6000	5
bin	6200	5
bin	6400	8
bin	6600	8
bin	6800	3
bin	7000	6
bin	7200	8
bin	7400	9
bin	7600	4
bin	7800	5
bin	8000	6
bin	8200	4
bin	8400	2
bin	8600	9
bin	8800	5
bin	9000	4
bin	9200	6
bin	9400	12
bin	9600	8
bin	9800	6
bin	10000	6
bin	10200	9
bin	10400	2
bin	10600	4
bin	10800	3
bin	11000	5
bin	11200	3
bin	11400	6
bin	11600	4
bin	11800	7
bin	12000	6
bin	12200	14
bin	12400	6
bin	12600	7
bin	12800	5
bin	13000	8
bin	13200	4
bin	13400	8
bin	13600	5
bin	13800	4
bin	14000	4
bin	14200	4
bin	14400	8
bin	14600	8
bin	14800	8
bin	15000	4
bin	15200	2
bin	15400	5
bin	15600	5
bin	15800	5
bin	16000	4
bin	16200	8
bin	16400	0
bin	16600	0
bin	16800	0
bin	17000	0
bin	17200	0
bin	17400	0
bin	17600	0
bin	17800	0
bin	18000	0
bin	18200	0
bin	18400	0
bin	18600	0
bin	18800	0
bin	19000	0
bin	19200	0
bin	19400	0
bin	19600	0
bin	19800	0
bin	20000	0
scalar Net60.rte[4].queue[3] txBytes:count 0
attr interpolationmode none
attr title "transmitting packet byte length, count"
attr unit bytes
scalar Net60.rte[4].queue[3] txBytes:sum 0
attr interpolationmode none
attr title "transmitting packet byte length, sum"
attr unit bytes
statistic Net60.rte[4].queue[3] txBytes:histogram
field count 0
field mean nan
field stddev nan
field min nan
field max nan
field sum 0
field sqrsum 0
attr interpolationmode none
attr title "transmitting packet byte length, histogram"
attr unit bytes
bin	-inf	0
bin	0	0
bin	1	0
scalar Net60.rte[4].queue[3] busy:timeavg 0
attr interpolationmode sample-hold
attr title "server busy state, timeavg"
scalar Net60.rte[4].queue[3] qlen:timeavg 0
attr interpolationmode sample-hold
attr title "queue length, timeavg"
scalar Net60.rte[4].queue[3] qlen:max 0
attr interpolationmode sample-hold
attr title "queue length, max"
scalar Net60.rte[4].queue[3] drop:count 0
attr interpolationmode none
attr title "dropped packet byte length, count"
attr unit bytes
scalar Net60.rte[4].queue[3] drop:sum 0
attr interpolationmode none
attr title "dropped packet byte length, sum"
attr unit bytes
statistic Net60.rte[5].routing outputIf:histogram
field count 2118
field mean 0.36260623229462
field stddev 0.77072021038822
field min 0
field max 2
field sum 768
field sqrsum 1536
attr interpolationmode none
attr title "output interface for each routed packet, histogram"
bin	-inf	0
bin	0	1734
bin	1	0
bin	2	384
bin	3	0
scalar Net60.rte[5].routing drop:count 0
attr interpolationmode none
attr title "dropped packet byte length, count"
attr unit bytes
scalar Net60.rte[5].routing drop:sum 0
attr interpolationmode none
attr title "dropped packet byte length, sum"
attr unit bytes
scalar Net60.rte[5].queue[0] rxBytes:count 295
attr interpolationmode none
attr title "received packet byte length, count"
attr unit bytes
scalar Net60.rte[5].queue[0] rxBytes:sum 2800385
attr interpolationmode none
attr title "received packet byte length, sum"
attr unit bytes
statistic Net60.rte[5].queue[0] rxBytes:histogram
field count 295
field mean 9492.8305084746
field stddev 4154.3038749543
field min 2061
field max 16362
field sum 2800385
field sqrsum 31657502925
attr interpolationmode none
attr title "received packet byte length, histogram"
attr unit bytes
bin	-inf	0
bin	0	0
bin	200	0
bin	400	0
bin	600	0
bin	800	0
bin	1000	0
bin	1200	0
bin	1400	0
bin	1600	0
bin	1800	0
bin	2000	1
bin	2200	5
bin	2400	4
bin	2600	4
bin	2800	6
bin	3000	5
bin	3200	3
bin	3400	3
bin	3600	4
bin	3800	6
bin	4000	1
bin	4200	5
bin	4400	3
bin	4600	3
bin	4800	1
bin	5000	5
bin	5200	3
bin	5400	4
bin	5600	3
bin	5800	2
bin	6000	5
bin	6200	5
bin	6400	6
bin	6600	4
bin	6800	4
bin	7000	3
bin	7200	4
bin	7400	3
bin	7600	6
bin	7800	3
bin	8000	5
bin	8200	2
bin	8400	2
bin	8600	6
bin	8800	8
bin	9000	4
bin	9200	2
bin	9400	1
bin	9600	4
bin	9800	4
bin	10000	6
bin	10200	5
bin	10400	2
bin	10600	5
bin	10800	3
bin	11000	3
bin	11200	4
bin	11400	7
bin	11600	3
bin	11800	5
bin	12000	4
bin	12200	7
bin	12400	8
bin	12600	5
bin	12800	3
bin	13000	4
bin	13200	6
bin	13400	4
bin	13600	5
bin	13800	1
bin	14000	4
bin	14200	4
bin	14400	5
bin	14600	3
bin	14800	6
bin	15000	3
bin	15200	3
bin	15400	7
bin	15600	4
bin	15800	4
bin	16000	5
bin	16200	5
bin	16400	0
bin	16600	0
bin	16800	0
bin	17000	0
bin	17200	0
bin	17400	0
bin	17600	0
bin	17800	0
bin	18000	0
bin	18200	0
bin	18400	0
bin	18600	0
bin	18800	0
bin	19000	0
bin	19200	0
bin	19400	0
bin	19600	0
bin	19800	0
bin	20000	0
scalar Net60.rte[5].queue[0] txBytes:count 1734
attr interpolationmode none
attr title "transmitting packet byte length, count"
attr unit bytes
scalar Net60.rte[5].queue[0] txBytes:sum 16105813
attr interpolationmode none
attr title "transmitting packet byte length, sum"
attr unit bytes
statistic Net60.rte[5].queue[0] txBytes:histogram
field count 1734
field mean 9288.2427912341
field stddev 4159.9343956211
field min 2058
field max 16379
field sum 16105813
field sqrsum 179584360381
attr interpolationmode none
attr title "transmitting packet byte length, histogram"
attr unit bytes
bin	-inf	0
bin	0	0
bin	200	0
bin	400	0
bin	600	0
bin	800	0
bin	1000	0
bin	1200	0
bin	1400	0
bin	1600	0
bin	1800	0
bin	2000	16
bin	2200	22
bin	2400	18
bin	2600	26
bin	2800	25
bin	3000	20
bin	3200	26
bin	3400	30
bin	3600	26
bin	3800	23
bin	4000	28
bin	4200	25
bin	4400	26
bin	4600	14
bin	4800	24
bin	5000	13
bin	5200	18
bin	5400	34
bin	5600	22
bin	5800	33
bin	6000	20
bin	6200	25
bin	6400	31
bin	6600	24
bin	6800	34
bin	7000	26
bin	7200	27
bin	7400	25
bin	7600	31
bin	7800	21
bin	8000	15
bin	8200	25
bin	8400	31
bin	8600	22
bin	8800	15
bin	9000	16
bin	9200	23
bin	9400	27
bin	9600	16
bin	9800	29
bin	10000	17
bin	10200	25
bin	10400	19
bin	10600	18
bin	10800	30
bin	11000	24
bin	11200	24
bin	11400	26
bin	11600	26
bin	11800	24
bin	12000	22
bin	12200	21
bin	12400	35
bin	12600	23
bin	12800	22
bin	13000	19
bin	13200	29
bin	13400	31
bin	13600	24
bin	13800	25
bin	14000	25
bin	14200	21
bin	14400	27
bin	14600	27
bin	14800	18
bin	15000	25
bin	15200	28
bin	15400	23
bin	15600	29
bin	15800	21
bin	16000	31
bin	16200	23
bin	16400	0
bin	16600	0
bin	16800	0
bin	17000	0
bin	17200	0
bin	17400	0
bin	17600	0
bin	17800	0
bin	18000	0
bin	18200	0
bin	18400	0
bin	18600	0
bin	18800	0
bin	19000	0
bin	19200	0
bin	19400	0
bin	19600	0
bin	19800	0
bin	20000	0
scalar Net60.rte[5].queue[0] busy:timeavg 0.00036636958511225
attr interpolationmode sample-hold
attr title "server busy state, timeavg"
scalar Net60.rte[5].queue[0] qlen:timeavg 5.7350955346725e-007
attr interpolationmode sample-hold
attr title "queue length, timeavg"
scalar Net60.rte[5].queue[0] qlen:max 1
attr interpolationmode sample-hold
attr title "queue length, max"
scalar Net60.rte[5].queue[0] drop:count 0
attr interpolationmode none
attr title "dropped packet byte length, count"
attr unit bytes
scalar Net60.rte[5].queue[0] drop:sum 0
attr interpolationmode none
attr title "dropped packet byte length, sum"
attr unit bytes
scalar Net60.rte[5].queue[1] rxBytes:count 122
attr interpolationmode none
attr title "received packet byte length, count"
attr unit bytes
scalar Net60.rte[5].queue[1] rxBytes:sum 1205296
attr interpolationmode none
attr title "received packet byte length, sum"
attr unit bytes
statistic Net60.rte[5].queue[1] rxBytes:histogram
field count 122
field mean 9879.4754098361
field stddev 4362.5211969233
field min 2197
field max 16348
field sum 1205296
field sqrsum 14210514728
attr interpolationmode none
attr title "received packet byte length, histogram"
attr unit bytes
bin	-inf	0
bin	0	0
bin	200	0
bin	400	0
bin	600	0
bin	800	0
bin	1000	0
bin	1200	0
bin	1400	0
bin	1600	0
bin	1800	0
bin	2000	1
bin	2200	2
bin	2400	2
bin	2600	2
bin	2800	1
bin	3000	4
bin	3200	1
bin	3400	1
bin	3600	0
bin	3800	1
bin	4000	0
bin	4200	1
bin	4400	3
bin	4600	0
bin	4800	2
bin	5000	3
bin	5200	3
bin	5400	1
bin	5600	2
bin	5800	2
bin	6000	1
bin	6200	2
bin	6400	0
bin	6600	2
bin	6800	1
bin	7000	0
bin	7200	1
bin	7400	2
bin	7600	0
bin	7800	1
bin	8000	3
bin	8200	2
bin	8400	3
bin	8600	0
bin	8800	2
bin	9000	0
bin	9200	1
bin	9400	3
bin	9600	2
bin	9800	1
bin	10000	1
bin	10200	2
bin	10400	2
bin	10600	0
bin	10800	0
bin	11000	1
bin	11200	2
bin	11400	3
bin	11600	3
bin	11800	1
bin	12000	2
bin	12200	2
bin	12400	0
bin	12600	2
bin	12800	3
bin	13000	1
bin	13200	3
bin	13400	7
bin	13600	0
bin	13800	1
bin	14000	2
bin	14200	0
bin	14400	3
bin	14600	3
bin	14800	1
bin	15000	3
bin	15200	3
bin	15400	1
bin	15600	3
bin	15800	1
bin	16000	3
bin	16200	4
bin	16400	0
bin	16600	0
bin	16800	0
bin	17000	0
bin	17200	0
bin	17400	0
bin	17600	0
bin	17800	0
bin	18000	0
bin	18200	0
bin	18400	0
bin	18600	0
bin	18800	0
bin	19000	0
bin	19200	0
bin	19400	0
bin	19600	0
bin	19800	0
bin	20000	0
scalar Net60.rte[5].queue[1] txBytes:count 0
attr interpolationmode none
attr title "transmitting packet byte length, count"
attr unit bytes
scalar Net60.rte[5].queue[1] txBytes:sum 0
attr interpolationmode none
attr title "transmitting packet byte length, sum"
attr unit bytes
statistic Net60.rte[5].queue[1] txBytes:histogram
field count 0
field mean nan
field stddev nan
field min nan
field max nan
field sum 0
field sqrsum 0
attr interpolationmode none
attr title "transmitting packet byte length, histogram"
attr unit bytes
bin	-inf	0
bin	0	0
bin	1	0
scalar Net60.rte[5].queue[1] busy:timeavg 0
attr interpolationmode sample-hold
attr title "server busy state, timeavg"
scalar Net60.rte[5].queue[1] qlen:timeavg 0
attr interpolationmode sample-hold
attr title "queue length, timeavg"
scalar Net60.rte[5].queue[1] qlen:max 0
attr interpolationmode sample-hold
attr title "queue length, max"
scalar Net60.rte[5].queue[1] drop:count 0
attr interpolationmode none
attr title "dropped packet byte length, count"
attr unit bytes
scalar Net60.rte[5].queue[1] drop:sum 0
attr interpolationmode none
attr title "dropped packet byte length, sum"
attr unit bytes
scalar Net60.rte[5].queue[2] rxBytes:count 1618
attr interpolationmode none
attr title "received packet byte length, count"
attr unit bytes
scalar Net60.rte[5].queue[2] rxBytes:sum 14933986
attr interpolationmode none
attr title "received packet byte length, sum"
attr unit bytes
statistic Net60.rte[5].queue[2] rxBytes:histogram
field count 1618
field mean 9229.9048207664
field stddev 4146.871295562
field min 2061
field max 16379
field sum 14933986
field sqrsum 165646077048
attr interpolationmode none
attr title "received packet byte length, histogram"
attr unit bytes
bin	-inf	0
bin	0	0
bin	200	0
bin	400	0
bin	600	0
bin	800	0
bin	1000	0
bin	1200	0
bin	1400	0
bin	1600	0
bin	1800	0
bin	2000	14
bin	2200	21
bin	2400	16
bin	2600	23
bin	2800	25
bin	3000	16
bin	3200	26
bin	3400	30
bin	3600	26
bin	3800	23
bin	4000	28
bin	4200	24
bin	4400	23
bin	4600	14
bin	4800	22
bin	5000	13
bin	5200	17
bin	5400	33
bin	5600	20
bin	5800	30
bin	6000	19
bin	6200	24
bin	6400	31
bin	6600	22
bin	6800	31
bin	7000	24
bin	7200	26
bin	7400	23
bin	7600	30
bin	7800	20
bin	8000	14
bin	8200	24
bin	8400	28
bin	8600	21
bin	8800	12
bin	9000	16
bin	9200	21
bin	9400	23
bin	9600	14
bin	9800	28
bin	10000	16
bin	10200	23
bin	10400	19
bin	10600	18
bin	10800	30
bin	11000	22
bin	11200	23
bin	11400	24
bin	11600	25
bin	11800	24
bin	12000	20
bin	12200	19
bin	12400	35
bin	12600	18
bin	12800	21
bin	13000	18
bin	13200	25
bin	13400	24
bin	13600	24
bin	13800	24
bin	14000	22
bin	14200	20
bin	14400	24
bin	14600	24
bin	14800	18
bin	15000	23
bin	15200	26
bin	15400	21
bin	15600	26
bin	15800	19
bin	16000	29
bin	16200	19
bin	16400	0
bin	16600	0
bin	16800	0
bin	17000	0
bin	17200	0
bin	17400	0
bin	17600	0
bin	17800	0
bin	18000	0
bin	18200	0
bin	18400	0
bin	18600	0
bin	18800	0
bin	19000	0
bin	19200	0
bin	19400	0
bin	19600	0
bin	19800	0
bin	20000	0
scalar Net60.rte[5].queue[2] txBytes:count 384
attr interpolationmode none
attr title "transmitting packet byte length, count"
attr unit bytes
scalar Net60.rte[5].queue[2] txBytes:sum 3657964
attr interpolationmode none
attr title "transmitting packet byte length, sum"
attr unit bytes
statistic Net60.rte[5].queue[2] txBytes:histogram
field count 384
field mean 9525.9479166667
field stddev 4118.5986263291
field min 2061
field max 16362
field sum 3657964
field sqrsum 41342347874
attr interpolationmode none
attr title "transmitting packet byte length, histogram"
attr unit bytes
bin	-inf	0
bin	0	0
bin	200	0
bin	400	0
bin	600	0
bin	800	0
bin	1000	0
bin	1200	0
bin	1400	0
bin	1600	0
bin	1800	0
bin	2000	1
bin	2200	6
bin	2400	5
bin	2600	6
bin	2800	7
bin	3000	6
bin	3200	4
bin	3400	4
bin	3600	5
bin	3800	7
bin	4000	2
bin	4200	5
bin	4400	4
bin	4600	4
bin	4800	2
bin	5000	8
bin	5200	6
bin	5400	5
bin	5600	3
bin	5800	4
bin	6000	5
bin	6200	7
bin	6400	6
bin	6600	4
bin	6800	4
bin	7000	4
bin	7200	5
bin	7400	5
bin	7600	7
bin	7800	5
bin	8000	8
bin	8200	3
bin	8400	3
bin	8600	6
bin	8800	8
bin	9000	5
bin	9200	3
bin	9400	1
bin	9600	4
bin	9800	6
bin	10000	9
bin	10200	6
bin	10400	4
bin	10600	8
bin	10800	5
bin	11000	4
bin	11200	6
bin	11400	9
bin	11600	5
bin	11800	6
bin	12000	7
bin	12200	8
bin	12400	8
bin	12600	7
bin	12800	5
bin	13000	6
bin	13200	8
bin	13400	5
bin	13600	5
bin	13800	2
bin	14000	5
bin	14200	4
bin	14400	7
bin	14600	6
bin	14800	7
bin	15000	4
bin	15200	4
bin	15400	7
bin	15600	7
bin	15800	5
bin	16000	6
bin	16200	6
bin	16400	0
bin	16600	0
bin	16800	0
bin	17000	0
bin	17200	0
bin	17400	0
bin	17600	0
bin	17800	0
bin	18000	0
bin	18200	0
bin	18400	0
bin	18600	0
bin	18800	0
bin	19000	0
bin	19200	0
bin	19400	0
bin	19600	0
bin	19800	0
bin	20000	0
scalar Net60.rte[5].queue[2] busy:timeavg 8.3210127488476e-005
attr interpolationmode sample-hold
attr title "server busy state, timeavg"
scalar Net60.rte[5].queue[2] qlen:timeavg 0
attr interpolationmode sample-hold
attr title "queue length, timeavg"
scalar Net60.rte[5].queue[2] qlen:max 0
attr interpolationmode sample-hold
attr title "queue length, max"
scalar Net60.rte[5].queue[2] drop:count 0
attr interpolationmode none
attr title "dropped packet byte length, count"
attr unit bytes
scalar Net60.rte[5].queue[2] drop:sum 0
attr interpolationmode none
attr title "dropped packet byte length, sum"
attr unit bytes
statistic Net60.rte[6].routing outputIf:histogram
field count 122
field mean 0
field stddev 0
field min 0
field max 0
field sum 0
field sqrsum 0
attr interpolationmode none
attr title "output interface for each routed packet, histogram"
bin	-inf	0
bin	-0.5	0
bin	-0.48	0
bin	-0.46	0
bin	-0.44	0
bin	-0.42	0
bin	-0.4	0
bin	-0.38	0
bin	-0.36	0
bin	-0.34	0
bin	-0.32	0
bin	-0.3	0
bin	-0.28	0
bin	-0.26	0
bin	-0.24	0
bin	-0.22	0
bin	-0.2	0
bin	-0.18	0
bin	-0.16	0
bin	-0.14	0
bin	-0.12	0
bin	-0.1	0
bin	-0.08	0
bin	-0.06	0
bin	-0.04	0
bin	-0.02	0
bin	0	122
bin	0.02	0
bin	0.04	0
bin	0.06	0
bin	0.08	0
bin	0.1	0
bin	0.12	0
bin	0.14	0
bin	0.16	0
bin	0.18	0
bin	0.2	0
bin	0.22	0
bin	0.24	0
bin	0.26	0
bin	0.28	0
bin	0.3	0
bin	0.32	0
bin	0.34	0
bin	0.36	0
bin	0.38	0
bin	0.4	0
bin	0.42	0
bin	0.44	0
bin	0.46	0
bin	0.48	0
bin	0.5	0
scalar Net60.rte[6].routing drop:count 0
attr interpolationmode none
attr title "dropped packet byte length, count"
attr unit bytes
scalar Net60.rte[6].routing drop:sum 0
attr interpolationmode none
attr title "dropped packet byte length, sum"
attr unit bytes
scalar Net60.rte[6].queue[0] rxBytes:count 0
attr interpolationmode none
attr title "received packet byte length, count"
attr unit bytes
scalar Net60.rte[6].queue[0] rxBytes:sum 0
attr interpolationmode none
attr title "received packet byte length, sum"
attr unit bytes
statistic Net60.rte[6].queue[0] rxBytes:histogram
field count 0
field mean nan
field stddev nan
field min nan
field max nan
field sum 0
field sqrsum 0
attr interpolationmode none
attr title "received packet byte length, histogram"
attr unit bytes
bin	-inf	0
bin	0	0
bin	1	0
scalar Net60.rte[6].queue[0] txBytes:count 122
attr interpolationmode none
attr title "transmitting packet byte length, count"
attr unit bytes
scalar Net60.rte[6].queue[0] txBytes:sum 1205296
attr interpolationmode none
attr title "transmitting packet byte length, sum"
attr unit bytes
statistic Net60.rte[6].queue[0] txBytes:histogram
field count 122
field mean 9879.4754098361
field stddev 4362.5211969233
field min 2197
field max 16348
field sum 1205296
field sqrsum 14210514728
attr interpolationmode none
attr title "transmitting packet byte length, histogram"
attr unit bytes
bin	-inf	0
bin	0	0
bin	200	0
bin	400	0
bin	600	0
bin	800	0
bin	1000	0
bin	1200	0
bin	1400	0
bin	1600	0
bin	1800	0
bin	2000	1
bin	2200	2
bin	2400	2
bin	2600	2
bin	2800	1
bin	3000	4
bin	3200	1
bin	3400	1
bin	3600	0
bin	3800	1
bin	4000	0
bin	4200	1
bin	4400	3
bin	4600	0
bin	4800	2
bin	5000	3
bin	5200	3
bin	5400	1
bin	5600	2
bin	5800	2
bin	6000	1
bin	6200	2
bin	6400	0
bin	6600	2
bin	6800	1
bin	7000	0
bin	7200	1
bin	7400	2
bin	7600	0
bin	7800	1
bin	8000	3
bin	8200	2
bin	8400	3
bin	8600	0
bin	8800	2
bin	9000	0
bin	9200	1
bin	9400	3
bin	9600	2
bin	9800	1
bin	10000	1
bin	10200	2
bin	10400	2
bin	10600	0
bin	10800	0
bin	11000	1
bin	11200	2
bin	11400	3
bin	11600	3
bin	11800	1
bin	12000	2
bin	12200	2
bin	12400	0
bin	12600	2
bin	12800	3
bin	13000	1
bin	13200	3
bin	13400	7
bin	13600	0
bin	13800	1
bin	14000	2
bin	14200	0
bin	14400	3
bin	14600	3
bin	14800	1
bin	15000	3
bin	15200	3
bin	15400	1
bin	15600	3
bin	15800	1
bin	16000	3
bin	16200	4
bin	16400	0
bin	16600	0
bin	16800	0
bin	17000	0
bin	17200	0
bin	17400	0
bin	17600	0
bin	17800	0
bin	18000	0
bin	18200	0
bin	18400	0
bin	18600	0
bin	18800	0
bin	19000	0
bin	19200	0
bin	19400	0
bin	19600	0
bin	19800	0
bin	20000	0
scalar Net60.rte[6].queue[0] busy:timeavg 2.7417665625291e-005
attr interpolationmode sample-hold
attr title "server busy state, timeavg"
scalar Net60.rte[6].queue[0] qlen:timeavg 0
attr interpolationmode sample-hold
attr title "queue length, timeavg"
scalar Net60.rte[6].queue[0] qlen:max 0
attr interpolationmode sample-hold
attr title "queue length, max"
scalar Net60.rte[6].queue[0] drop:count 0
attr interpolationmode none
attr title "dropped packet byte length, count"
attr unit bytes
scalar Net60.rte[6].queue[0] drop:sum 0
attr interpolationmode none
attr title "dropped packet byte length, sum"
attr unit bytes
scalar Net60.rte[6].queue[1] rxBytes:count 0
attr interpolationmode none
attr title "received packet byte length, count"
attr unit bytes
scalar Net60.rte[6].queue[1] rxBytes:sum 0
attr interpolationmode none
attr title "received packet byte length, sum"
attr unit bytes
statistic Net60.rte[6].queue[1] rxBytes:histogram
field count 0
field mean nan
field stddev nan
field min nan
field max nan
field sum 0
field sqrsum 0
attr interpolationmode none
attr title "received packet byte length, histogram"
attr unit bytes
bin	-inf	0
bin	0	0
bin	1	0
scalar Net60.rte[6].queue[1] txBytes:count 0
attr interpolationmode none
attr title "transmitting packet byte length, count"
attr unit bytes
scalar Net60.rte[6].queue[1] txBytes:sum 0
attr interpolationmode none
attr title "transmitting packet byte length, sum"
attr unit bytes
statistic Net60.rte[6].queue[1] txBytes:histogram
field count 0
field mean nan
field stddev nan
field min nan
field max nan
field sum 0
field sqrsum 0
attr interpolationmode none
attr title "transmitting packet byte length, histogram"
attr unit bytes
bin	-inf	0
bin	0	0
bin	1	0
scalar Net60.rte[6].queue[1] busy:timeavg 0
attr interpolationmode sample-hold
attr title "server busy state, timeavg"
scalar Net60.rte[6].queue[1] qlen:timeavg 0
attr interpolationmode sample-hold
attr title "queue length, timeavg"
scalar Net60.rte[6].queue[1] qlen:max 0
attr interpolationmode sample-hold
attr title "queue length, max"
scalar Net60.rte[6].queue[1] drop:count 0
attr interpolationmode none
attr title "dropped packet byte length, count"
attr unit bytes
scalar Net60.rte[6].queue[1] drop:sum 0
attr interpolationmode none
attr title "dropped packet byte length, sum"
attr unit bytes
scalar Net60.rte[6].queue[2] rxBytes:count 42
attr interpolationmode none
attr title "received packet byte length, count"
attr unit bytes
scalar Net60.rte[6].queue[2] rxBytes:sum 441738
attr interpolationmode none
attr title "received packet byte length, sum"
attr unit bytes
statistic Net60.rte[6].queue[2] rxBytes:histogram
field count 42
field mean 10517.571428571
field stddev 4316.8116290979
field min 2197
field max 16348
field sum 441738
field sqrsum 5410040336
attr interpolationmode none
attr title "received packet byte length, histogram"
attr unit bytes
bin	-inf	0
bin	0	0
bin	200	0
bin	400	0
bin	600	0
bin	800	0
bin	1000	0
bin	1200	0
bin	1400	0
bin	1600	0
bin	1800	0
bin	2000	1
bin	2200	0
bin	2400	1
bin	2600	1
bin	2800	0
bin	3000	2
bin	3200	0
bin	3400	0
bin	3600	0
bin	3800	0
bin	4000	0
bin	4200	0
bin	4400	0
bin	4600	0
bin	4800	1
bin	5000	0
bin	5200	1
bin	5400	0
bin	5600	1
bin	5800	0
bin	6000	0
bin	6200	0
bin	6400	0
bin	6600	1
bin	6800	0
bin	7000	0
bin	7200	1
bin	7400	0
bin	7600	0
bin	7800	1
bin	8000	1
bin	8200	0
bin	8400	1
bin	8600	0
bin	8800	1
bin	9000	0
bin	9200	1
bin	9400	3
bin	9600	1
bin	9800	0
bin	10000	1
bin	10200	1
bin	10400	0
bin	10600	0
bin	10800	0
bin	11000	1
bin	11200	0
bin	11400	0
bin	11600	0
bin	11800	0
bin	12000	1
bin	12200	1
bin	12400	0
bin	12600	1
bin	12800	0
bin	13000	0
bin	13200	1
bin	13400	5
bin	13600	0
bin	13800	0
bin	14000	2
bin	14200	0
bin	14400	0
bin	14600	1
bin	14800	0
bin	15000	2
bin	15200	1
bin	15400	1
bin	15600	0
bin	15800	0
bin	16000	2
bin	16200	2
bin	16400	0
bin	16600	0
bin	16800	0
bin	17000	0
bin	17200	0
bin	17400	0
bin	17600	0
bin	17800	0
bin	18000	0
bin	18200	0
bin	18400	0
bin	18600	0
bin	18800	0
bin	19000	0
bin	19200	0
bin	19400	0
bin	19600	0
bin	19800	0
bin	20000	0
scalar Net60.rte[6].queue[2] txBytes:count 0
attr interpolationmode none
attr title "transmitting packet byte length, count"
attr unit bytes
scalar Net60.rte[6].queue[2] txBytes:sum 0
attr interpolationmode none
attr title "transmitting packet byte length, sum"
attr unit bytes
statistic Net60.rte[6].queue[2] txBytes:histogram
field count 0
field mean nan
field stddev nan
field min nan
field max nan
field sum 0
field sqrsum 0
attr interpolationmode none
attr title "transmitting packet byte length, histogram"
attr unit bytes
bin	-inf	0
bin	0	0
bin	1	0
scalar Net60.rte[6].queue[2] busy:timeavg 0
attr interpolationmode sample-hold
attr title "server busy state, timeavg"
scalar Net60.rte[6].queue[2] qlen:timeavg 0
attr interpolationmode sample-hold
attr title "queue length, timeavg"
scalar Net60.rte[6].queue[2] qlen:max 0
attr interpolationmode sample-hold
attr title "queue length, max"
scalar Net60.rte[6].queue[2] drop:count 0
attr interpolationmode none
attr title "dropped packet byte length, count"
attr unit bytes
scalar Net60.rte[6].queue[2] drop:sum 0
attr interpolationmode none
attr title "dropped packet byte length, sum"
attr unit bytes
statistic Net60.rte[7].routing outputIf:histogram
field count 402
field mean 0
field stddev 0
field min 0
field max 0
field sum 0
field sqrsum 0
attr interpolationmode none
attr title "output interface for each routed packet, histogram"
bin	-inf	0
bin	-0.5	0
bin	-0.48	0
bin	-0.46	0
bin	-0.44	0
bin	-0.42	0
bin	-0.4	0
bin	-0.38	0
bin	-0.36	0
bin	-0.34	0
bin	-0.32	0
bin	-0.3	0
bin	-0.28	0
bin	-0.26	0
bin	-0.24	0
bin	-0.22	0
bin	-0.2	0
bin	-0.18	0
bin	-0.16	0
bin	-0.14	0
bin	-0.12	0
bin	-0.1	0
bin	-0.08	0
bin	-0.06	0
bin	-0.04	0
bin	-0.02	0
bin	0	402
bin	0.02	0
bin	0.04	0
bin	0.06	0
bin	0.08	0
bin	0.1	0
bin	0.12	0
bin	0.14	0
bin	0.16	0
bin	0.18	0
bin	0.2	0
bin	0.22	0
bin	0.24	0
bin	0.26	0
bin	0.28	0
bin	0.3	0
bin	0.32	0
bin	0.34	0
bin	0.36	0
bin	0.38	0
bin	0.4	0
bin	0.42	0
bin	0.44	0
bin	0.46	0
bin	0.48	0
bin	0.5	0
scalar Net60.rte[7].routing drop:count 0
attr interpolationmode none
attr title "dropped packet byte length, count"
attr unit bytes
scalar Net60.rte[7].routing drop:sum 0
attr interpolationmode none
attr title "dropped packet byte length, sum"
attr unit bytes
scalar Net60.rte[7].queue[0] rxBytes:count 0
attr interpolationmode none
attr title "received packet byte length, count"
attr unit bytes
scalar Net60.rte[7].queue[0] rxBytes:sum 0
attr interpolationmode none
attr title "received packet byte length, sum"
attr unit bytes
statistic Net60.rte[7].queue[0] rxBytes:histogram
field count 0
field mean nan
field stddev nan
field min nan
field max nan
field sum 0
field sqrsum 0
attr interpolationmode none
attr title "received packet byte length, histogram"
attr unit bytes
bin	-inf	0
bin	0	0
bin	1	0
scalar Net60.rte[7].queue[0] txBytes:count 402
attr interpolationmode none
attr title "transmitting packet byte length, count"
attr unit bytes
scalar Net60.rte[7].queue[0] txBytes:sum 3784469
attr interpolationmode none
attr title "transmitting packet byte length, sum"
attr unit bytes
statistic Net60.rte[7].queue[0] txBytes:histogram
field count 402
field mean 9414.1019900498
field stddev 4002.5247682862
field min 2091
field max 16355
field sum 3784469
field sqrsum 42051479157
attr interpolationmode none
attr title "transmitting packet byte length, histogram"
attr unit bytes
bin	-inf	0
bin	0	0
bin	200	0
bin	400	0
bin	600	0
bin	800	0
bin	1000	0
bin	1200	0
bin	1400	0
bin	1600	0
bin	1800	0
bin	2000	3
bin	2200	3
bin	2400	4
bin	2600	2
bin	2800	4
bin	3000	5
bin	3200	3
bin	3400	8
bin	3600	8
bin	3800	8
bin	4000	7
bin	4200	6
bin	4400	4
bin	4600	6
bin	4800	3
bin	5000	5
bin	5200	3
bin	5400	4
bin	5600	4
bin	5800	8
bin	6000	5
bin	6200	5
bin	6400	8
bin	6600	8
bin	6800	3
bin	7000	6
bin	7200	8
bin	7400	9
bin	7600	4
bin	7800	5
bin	8000	6
bin	8200	4
bin	8400	2
bin	8600	9
bin	8800	5
bin	9000	4
bin	9200	6
bin	9400	12
bin	9600	8
bin	9800	6
bin	10000	6
bin	10200	9
bin	10400	2
bin	10600	4
bin	10800	3
bin	11000	5
bin	11200	3
bin	11400	6
bin	11600	4
bin	11800	7
bin	12000	6
bin	12200	14
bin	12400	6
bin	12600	7
bin	12800	5
bin	13000	8
bin	13200	4
bin	13400	8
bin	13600	5
bin	13800	4
bin	14000	4
bin	14200	4
bin	14400	8
bin	14600	8
bin	14800	8
bin	15000	4
bin	15200	2
bin	15400	5
bin	15600	5
bin	15800	5
bin	16000	4
bin	16200	8
bin	16400	0
bin	16600	0
bin	16800	0
bin	17000	0
bin	17200	0
bin	17400	0
bin	17600	0
bin	17800	0
bin	18000	0
bin	18200	0
bin	18400	0
bin	18600	0
bin	18800	0
bin	19000	0
bin	19200	0
bin	19400	0
bin	19600	0
bin	19800	0
bin	20000	0
scalar Net60.rte[7].queue[0] busy:timeavg 8.6087820428574e-005
attr interpolationmode sample-hold
attr title "server busy state, timeavg"
scalar Net60.rte[7].queue[0] qlen:timeavg 0
attr interpolationmode sample-hold
attr title "queue length, timeavg"
scalar Net60.rte[7].queue[0] qlen:max 0
attr interpolationmode sample-hold
attr title "queue length, max"
scalar Net60.rte[7].queue[0] drop:count 0
attr interpolationmode none
attr title "dropped packet byte length, count"
attr unit bytes
scalar Net60.rte[7].queue[0] drop:sum 0
attr interpolationmode none
attr title "dropped packet byte length, sum"
attr unit bytes
scalar Net60.rte[7].queue[1] rxBytes:count 0
attr interpolationmode none
attr title "received packet byte length, count"
attr unit bytes
scalar Net60.rte[7].queue[1] rxBytes:sum 0
attr interpolationmode none
attr title "received packet byte length, sum"
attr unit bytes
statistic Net60.rte[7].queue[1] rxBytes:histogram
field count 0
field mean nan
field stddev nan
field min nan
field max nan
field sum 0
field sqrsum 0
attr interpolationmode none
attr title "received packet byte length, histogram"
attr unit bytes
bin	-inf	0
bin	0	0
bin	1	0
scalar Net60.rte[7].queue[1] txBytes:count 0
attr interpolationmode none
attr title "transmitting packet byte length, count"
attr unit bytes
scalar Net60.rte[7].queue[1] txBytes:sum 0
attr interpolationmode none
attr title "transmitting packet byte length, sum"
attr unit bytes
statistic Net60.rte[7].queue[1] txBytes:histogram
field count 0
field mean nan
field stddev nan
field min nan
field max nan
field sum 0
field sqrsum 0
attr interpolationmode none
attr title "transmitting packet byte length, histogram"
attr unit bytes
bin	-inf	0
bin	0	0
bin	1	0
scalar Net60.rte[7].queue[1] busy:timeavg 0
attr interpolationmode sample-hold
attr title "server busy state, timeavg"
scalar Net60.rte[7].queue[1] qlen:timeavg 0
attr interpolationmode sample-hold
attr title "queue length, timeavg"
scalar Net60.rte[7].queue[1] qlen:max 0
attr interpolationmode sample-hold
attr title "queue length, max"
scalar Net60.rte[7].queue[1] drop:count 0
attr interpolationmode none
attr title "dropped packet byte length, count"
attr unit bytes
scalar Net60.rte[7].queue[1] drop:sum 0
attr interpolationmode none
attr title "dropped packet byte length, sum"
attr unit bytes
scalar Net60.rte[7].queue[2] rxBytes:count 92
attr interpolationmode none
attr title "received packet byte length, count"
attr unit bytes
scalar Net60.rte[7].queue[2] rxBytes:sum 905941
attr interpolationmode none
attr title "received packet byte length, sum"
attr unit bytes
statistic Net60.rte[7].queue[2] rxBytes:histogram
field count 92
field mean 9847.1847826087
field stddev 3993.3871379585
field min 2091
field max 16320
field sum 905941
field sqrsum 10372158245
attr interpolationmode none
attr title "received packet byte length, histogram"
attr unit bytes
bin	-inf	0
bin	0	0
bin	200	0
bin	400	0
bin	600	0
bin	800	0
bin	1000	0
bin	1200	0
bin	1400	0
bin	1600	0
bin	1800	0
bin	2000	1
bin	2200	0
bin	2400	1
bin	2600	0
bin	2800	0
bin	3000	1
bin	3200	1
bin	3400	1
bin	3600	3
bin	3800	2
bin	4000	2
bin	4200	1
bin	4400	0
bin	4600	1
bin	4800	0
bin	5000	3
bin	5200	0
bin	5400	1
bin	5600	1
bin	5800	1
bin	6000	0
bin	6200	1
bin	6400	1
bin	6600	3
bin	6800	0
bin	7000	1
bin	7200	2
bin	7400	1
bin	7600	1
bin	7800	1
bin	8000	3
bin	8200	0
bin	8400	0
bin	8600	2
bin	8800	2
bin	9000	1
bin	9200	1
bin	9400	2
bin	9600	2
bin	9800	0
bin	10000	3
bin	10200	4
bin	10400	0
bin	10600	1
bin	10800	0
bin	11000	2
bin	11200	1
bin	11400	1
bin	11600	1
bin	11800	2
bin	12000	0
bin	12200	3
bin	12400	2
bin	12600	2
bin	12800	2
bin	13000	1
bin	13200	1
bin	13400	3
bin	13600	3
bin	13800	0
bin	14000	2
bin	14200	0
bin	14400	1
bin	14600	1
bin	14800	2
bin	15000	2
bin	15200	0
bin	15400	2
bin	15600	2
bin	15800	0
bin	16000	1
bin	16200	3
bin	16400	0
bin	16600	0
bin	16800	0
bin	17000	0
bin	17200	0
bin	17400	0
bin	17600	0
bin	17800	0
bin	18000	0
bin	18200	0
bin	18400	0
bin	18600	0
bin	18800	0
bin	19000	0
bin	19200	0
bin	19400	0
bin	19600	0
bin	19800	0
bin	20000	0
scalar Net60.rte[7].queue[2] txBytes:count 0
attr interpolationmode none
attr title "transmitting packet byte length, count"
attr unit bytes
scalar Net60.rte[7].queue[2] txBytes:sum 0
attr interpolationmode none
attr title "transmitting packet byte length, sum"
attr unit bytes
statistic Net60.rte[7].queue[2] txBytes:histogram
field count 0
field mean nan
field stddev nan
field min nan
field max nan
field sum 0
field sqrsum 0
attr interpolationmode none
attr title "transmitting packet byte length, histogram"
attr unit bytes
bin	-inf	0
bin	0	0
bin	1	0
scalar Net60.rte[7].queue[2] busy:timeavg 0
attr interpolationmode sample-hold
attr title "server busy state, timeavg"
scalar Net60.rte[7].queue[2] qlen:timeavg 0
attr interpolationmode sample-hold
attr title "queue length, timeavg"
scalar Net60.rte[7].queue[2] qlen:max 0
attr interpolationmode sample-hold
attr title "queue length, max"
scalar Net60.rte[7].queue[2] drop:count 0
attr interpolationmode none
attr title "dropped packet byte length, count"
attr unit bytes
scalar Net60.rte[7].queue[2] drop:sum 0
attr interpolationmode none
attr title "dropped packet byte length, sum"
attr unit bytes
scalar Net60.rte[7].queue[3] rxBytes:count 227
attr interpolationmode none
attr title "received packet byte length, count"
attr unit bytes
scalar Net60.rte[7].queue[3] rxBytes:sum 2111628
attr interpolationmode none
attr title "received packet byte length, sum"
attr unit bytes
statistic Net60.rte[7].queue[3] rxBytes:histogram
field count 227
field mean 9302.3259911894
field stddev 3994.065204508
field min 2126
field max 16355
field sum 2111628
field sqrsum 23248329878
attr interpolationmode none
attr title "received packet byte length, histogram"
attr unit bytes
bin	-inf	0
bin	0	0
bin	200	0
bin	400	0
bin	600	0
bin	800	0
bin	1000	0
bin	1200	0
bin	1400	0
bin	1600	0
bin	1800	0
bin	2000	2
bin	2200	3
bin	2400	3
bin	2600	1
bin	2800	1
bin	3000	4
bin	3200	1
bin	3400	5
bin	3600	3
bin	3800	4
bin	4000	5
bin	4200	3
bin	4400	3
bin	4600	3
bin	4800	3
bin	5000	2
bin	5200	3
bin	5400	2
bin	5600	2
bin	5800	5
bin	6000	4
bin	6200	2
bin	6400	4
bin	6600	3
bin	6800	1
bin	7000	2
bin	7200	5
bin	7400	7
bin	7600	1
bin	7800	4
bin	8000	2
bin	8200	2
bin	8400	2
bin	8600	6
bin	8800	3
bin	9000	3
bin	9200	5
bin	9400	7
bin	9600	5
bin	9800	3
bin	10000	1
bin	10200	4
bin	10400	1
bin	10600	3
bin	10800	2
bin	11000	3
bin	11200	1
bin	11400	3
bin	11600	3
bin	11800	4
bin	12000	4
bin	12200	9
bin	12400	3
bin	12600	5
bin	12800	2
bin	13000	6
bin	13200	3
bin	13400	4
bin	13600	1
bin	13800	3
bin	14000	1
bin	14200	4
bin	14400	1
bin	14600	6
bin	14800	5
bin	15000	0
bin	15200	2
bin	15400	1
bin	15600	3
bin	15800	5
bin	16000	1
bin	16200	4
bin	16400	0
bin	16600	0
bin	16800	0
bin	17000	0
bin	17200	0
bin	17400	0
bin	17600	0
bin	17800	0
bin	18000	0
bin	18200	0
bin	18400	0
bin	18600	0
bin	18800	0
bin	19000	0
bin	19200	0
bin	19400	0
bin	19600	0
bin	19800	0
scalar Net60.rte[7].queue[3] txBytes:count 0
attr interpolationmode none
attr title "transmitting packet byte length, count"
attr unit bytes
scalar Net60.rte[7].queue[3] txBytes:sum 0
attr interpolationmode none
attr title "transmitting packet byte length, sum"
attr unit bytes
statistic Net60.rte[7].queue[3] txBytes:histogram
field count 0
field mean nan
field stddev nan
field min nan
field max nan
field sum 0
field sqrsum 0
attr interpolationmode none
attr title "transmitting packet byte length, histogram"
attr unit bytes
bin	-inf	0
bin	0	0
bin	1	0
scalar Net60.rte[7].queue[3] busy:timeavg 0
attr interpolationmode sample-hold
attr title "server busy state, timeavg"
scalar Net60.rte[7].queue[3] qlen:timeavg 0
attr interpolationmode sample-hold
attr title "queue length, timeavg"
scalar Net60.rte[7].queue[3] qlen:max 0
attr interpolationmode sample-hold
attr title "queue length, max"
scalar Net60.rte[7].queue[3] drop:count 0
attr interpolationmode none
attr title "dropped packet byte length, count"
attr unit bytes
scalar Net60.rte[7].queue[3] drop:sum 0
attr interpolationmode none
attr title "dropped packet byte length, sum"
attr unit bytes
statistic Net60.rte[8].routing outputIf:histogram
field count 92
field mean 0
field stddev 0
field min 0
field max 0
field sum 0
field sqrsum 0
attr interpolationmode none
attr title "output interface for each routed packet, histogram"
bin	-inf	0
bin	-0.5	0
bin	-0.48	0
bin	-0.46	0
bin	-0.44	0
bin	-0.42	0
bin	-0.4	0
bin	-0.38	0
bin	-0.36	0
bin	-0.34	0
bin	-0.32	0
bin	-0.3	0
bin	-0.28	0
bin	-0.26	0
bin	-0.24	0
bin	-0.22	0
bin	-0.2	0
bin	-0.18	0
bin	-0.16	0
bin	-0.14	0
bin	-0.12	0
bin	-0.1	0
bin	-0.08	0
bin	-0.06	0
bin	-0.04	0
bin	-0.02	0
bin	0	92
bin	0.02	0
bin	0.04	0
bin	0.06	0
bin	0.08	0
bin	0.1	0
bin	0.12	0
bin	0.14	0
bin	0.16	0
bin	0.18	0
bin	0.2	0
bin	0.22	0
bin	0.24	0
bin	0.26	0
bin	0.28	0
bin	0.3	0
bin	0.32	0
bin	0.34	0
bin	0.36	0
bin	0.38	0
bin	0.4	0
bin	0.42	0
bin	0.44	0
bin	0.46	0
bin	0.48	0
bin	0.5	0
scalar Net60.rte[8].routing drop:count 0
attr interpolationmode none
attr title "dropped packet byte length, count"
attr unit bytes
scalar Net60.rte[8].routing drop:sum 0
attr interpolationmode none
attr title "dropped packet byte length, sum"
attr unit bytes
scalar Net60.rte[8].queue[0] rxBytes:count 0
attr interpolationmode none
attr title "received packet byte length, count"
attr unit bytes
scalar Net60.rte[8].queue[0] rxBytes:sum 0
attr interpolationmode none
attr title "received packet byte length, sum"
attr unit bytes
statistic Net60.rte[8].queue[0] rxBytes:histogram
field count 0
field mean nan
field stddev nan
field min nan
field max nan
field sum 0
field sqrsum 0
attr interpolationmode none
attr title "received packet byte length, histogram"
attr unit bytes
bin	-inf	0
bin	0	0
bin	1	0
scalar Net60.rte[8].queue[0] txBytes:count 92
attr interpolationmode none
attr title "transmitting packet byte length, count"
attr unit bytes
scalar Net60.rte[8].queue[0] txBytes:sum 905941
attr interpolationmode none
attr title "transmitting packet byte length, sum"
attr unit bytes
statistic Net60.rte[8].queue[0] txBytes:histogram
field count 92
field mean 9847.1847826087
field stddev 3993.3871379585
field min 2091
field max 16320
field sum 905941
field sqrsum 10372158245
attr interpolationmode none
attr title "transmitting packet byte length, histogram"
attr unit bytes
bin	-inf	0
bin	0	0
bin	200	0
bin	400	0
bin	600	0
bin	800	0
bin	1000	0
bin	1200	0
bin	1400	0
bin	1600	0
bin	1800	0
bin	2000	1
bin	2200	0
bin	2400	1
bin	2600	0
bin	2800	0
bin	3000	1
bin	3200	1
bin	3400	1
bin	3600	3
bin	3800	2
bin	4000	2
bin	4200	1
bin	4400	0
bin	4600	1
bin	4800	0
bin	5000	3
bin	5200	0
bin	5400	1
bin	5600	1
bin	5800	1
bin	6000	0
bin	6200	1
bin	6400	1
bin	6600	3
bin	6800	0
bin	7000	1
bin	7200	2
bin	7400	1
bin	7600	1
bin	7800	1
bin	8000	3
bin	8200	0
bin	8400	0
bin	8600	2
bin	8800	2
bin	9000	1
bin	9200	1
bin	9400	2
bin	9600	2
bin	9800	0
bin	10000	3
bin	10200	4
bin	10400	0
bin	10600	1
bin	10800	0
bin	11000	2
bin	11200	1
bin	11400	1
bin	11600	1
bin	11800	2
bin	12000	0
bin	12200	3
bin	12400	2
bin	12600	2
bin	12800	2
bin	13000	1
bin	13200	1
bin	13400	3
bin	13600	3
bin	13800	0
bin	14000	2
bin	14200	0
bin	14400	1
bin	14600	1
bin	14800	2
bin	15000	2
bin	15200	0
bin	15400	2
bin	15600	2
bin	15800	0
bin	16000	1
bin	16200	3
bin	16400	0
bin	16600	0
bin	16800	0
bin	17000	0
bin	17200	0
bin	17400	0
bin	17600	0
bin	17800	0
bin	18000	0
bin	18200	0
bin	18400	0
bin	18600	0
bin	18800	0
bin	19000	0
bin	19200	0
bin	19400	0
bin	19600	0
bin	19800	0
bin	20000	0
scalar Net60.rte[8].queue[0] busy:timeavg 2.0608039364805e-005
attr interpolationmode sample-hold
attr title "server busy state, timeavg"
scalar Net60.rte[8].queue[0] qlen:timeavg 0
attr interpolationmode sample-hold
attr title "queue length, timeavg"
scalar Net60.rte[8].queue[0] qlen:max 0
attr interpolationmode sample-hold
attr title "queue length, max"
scalar Net60.rte[8].queue[0] drop:count 0
attr interpolationmode none
attr title "dropped packet byte length, count"
attr unit bytes
scalar Net60.rte[8].queue[0] drop:sum 0
attr interpolationmode none
attr title "dropped packet byte length, sum"
attr unit bytes
statistic Net60.rte[9].routing outputIf:histogram
field count 76
field mean 0.44736842105263
field stddev 0.50052603907237
field min 0
field max 1
field sum 34
field sqrsum 34
attr interpolationmode none
attr title "output interface for each routed packet, histogram"
bin	-inf	0
bin	0	42
bin	1	34
bin	2	0
scalar Net60.rte[9].routing drop:count 0
attr interpolationmode none
attr title "dropped packet byte length, count"
attr unit bytes
scalar Net60.rte[9].routing drop:sum 0
attr interpolationmode none
attr title "dropped packet byte length, sum"
attr unit bytes
scalar Net60.rte[9].queue[0] rxBytes:count 0
attr interpolationmode none
attr title "received packet byte length, count"
attr unit bytes
scalar Net60.rte[9].queue[0] rxBytes:sum 0
attr interpolationmode none
attr title "received packet byte length, sum"
attr unit bytes
statistic Net60.rte[9].queue[0] rxBytes:histogram
field count 0
field mean nan
field stddev nan
field min nan
field max nan
field sum 0
field sqrsum 0
attr interpolationmode none
attr title "received packet byte length, histogram"
attr unit bytes
bin	-inf	0
bin	0	0
bin	1	0
scalar Net60.rte[9].queue[0] txBytes:count 42
attr interpolationmode none
attr title "transmitting packet byte length, count"
attr unit bytes
scalar Net60.rte[9].queue[0] txBytes:sum 441738
attr interpolationmode none
attr title "transmitting packet byte length, sum"
attr unit bytes
statistic Net60.rte[9].queue[0] txBytes:histogram
field count 42
field mean 10517.571428571
field stddev 4316.8116290979
field min 2197
field max 16348
field sum 441738
field sqrsum 5410040336
attr interpolationmode none
attr title "transmitting packet byte length, histogram"
attr unit bytes
bin	-inf	0
bin	0	0
bin	200	0
bin	400	0
bin	600	0
bin	800	0
bin	1000	0
bin	1200	0
bin	1400	0
bin	1600	0
bin	1800	0
bin	2000	1
bin	2200	0
bin	2400	1
bin	2600	1
bin	2800	0
bin	3000	2
bin	3200	0
bin	3400	0
bin	3600	0
bin	3800	0
bin	4000	0
bin	4200	0
bin	4400	0
bin	4600	0
bin	4800	1
bin	5000	0
bin	5200	1
bin	5400	0
bin	5600	1
bin	5800	0
bin	6000	0
bin	6200	0
bin	6400	0
bin	6600	1
bin	6800	0
bin	7000	0
bin	7200	1
[...]
attr unit bytes
scalar Net60.rte[54].queue[0] rxBytes:count 0
attr interpolationmode none
attr title "received packet byte length, count"
attr unit bytes
scalar Net60.rte[54].queue[0] rxBytes:sum 0
attr interpolationmode none
attr title "received packet byte length, sum"
attr unit bytes
statistic Net60.rte[54].queue[0] rxBytes:histogram
field count 0
field mean nan
field stddev nan
field min nan
field max nan
field sum 0
field sqrsum 0
attr interpolationmode none
attr title "received packet byte length, histogram"
attr unit bytes
bin	-inf	0
bin	0	0
bin	1	0
scalar Net60.rte[54].queue[0] txBytes:count 112
attr interpolationmode none
attr title "transmitting packet byte length, count"
attr unit bytes
scalar Net60.rte[54].queue[0] txBytes:sum 922498
attr interpolationmode none
attr title "transmitting packet byte length, sum"
attr unit bytes
statistic Net60.rte[54].queue[0] txBytes:histogram
field count 112
field mean 8236.5892857143
field stddev 4015.3687512073
field min 2116
field max 16182
field sum 922498
field sqrsum 9387910812
attr interpolationmode none
attr title "transmitting packet byte length, histogram"
attr unit bytes
bin	-inf	0
bin	0	0
bin	200	0
bin	400	0
bin	600	0
bin	800	0
bin	1000	0
bin	1200	0
bin	1400	0
bin	1600	0
bin	1800	0
bin	2000	1
bin	2200	0
bin	2400	1
bin	2600	1
bin	2800	1
bin	3000	2
bin	3200	2
bin	3400	6
bin	3600	4
bin	3800	2
bin	4000	3
bin	4200	5
bin	4400	1
bin	4600	1
bin	4800	2
bin	5000	1
bin	5200	1
bin	5400	3
bin	5600	2
bin	5800	1
bin	6000	2
bin	6200	3
bin	6400	2
bin	6600	1
bin	6800	1
bin	7000	1
bin	7200	3
bin	7400	1
bin	7600	1
bin	7800	1
bin	8000	3
bin	8200	1
bin	8400	5
bin	8600	4
bin	8800	1
bin	9000	2
bin	9200	3
bin	9400	0
bin	9600	0
bin	9800	5
bin	10000	1
bin	10200	0
bin	10400	0
bin	10600	1
bin	10800	1
bin	11000	0
bin	11200	1
bin	11400	2
bin	11600	1
bin	11800	1
bin	12000	2
bin	12200	1
bin	12400	2
bin	12600	3
bin	12800	0
bin	13000	0
bin	13200	0
bin	13400	0
bin	13600	1
bin	13800	0
bin	14000	0
bin	14200	1
bin	14400	2
bin	14600	1
bin	14800	1
bin	15000	1
bin	15200	0
bin	15400	2
bin	15600	0
bin	15800	3
bin	16000	4
bin	16200	0
bin	16400	0
bin	16600	0
bin	16800	0
bin	17000	0
bin	17200	0
bin	17400	0
bin	17600	0
bin	17800	0
bin	18000	0
bin	18200	0
bin	18400	0
bin	18600	0
bin	18800	0
bin	19000	0
bin	19200	0
bin	19400	0
bin	19600	0
bin	19800	0
scalar Net60.rte[54].queue[0] busy:timeavg 2.0984672399145e-005
attr interpolationmode sample-hold
attr title "server busy state, timeavg"
scalar Net60.rte[54].queue[0] qlen:timeavg 0
attr interpolationmode sample-hold
attr title "queue length, timeavg"
scalar Net60.rte[54].queue[0] qlen:max 0
attr interpolationmode sample-hold
attr title "queue length, max"
scalar Net60.rte[54].queue[0] drop:count 0
attr interpolationmode none
attr title "dropped packet byte length, count"
attr unit bytes
scalar Net60.rte[54].queue[0] drop:sum 0
attr interpolationmode none
attr title "dropped packet byte length, sum"
attr unit bytes
scalar Net60.rte[54].queue[1] rxBytes:count 46
attr interpolationmode none
attr title "received packet byte length, count"
attr unit bytes
scalar Net60.rte[54].queue[1] rxBytes:sum 391155
attr interpolationmode none
attr title "received packet byte length, sum"
attr unit bytes
statistic Net60.rte[54].queue[1] rxBytes:histogram
field count 46
field mean 8503.3695652174
field stddev 3934.5887960141
field min 2701
field max 16120
field sum 391155
field sqrsum 4022780027
attr interpolationmode none
attr title "received packet byte length, histogram"
attr unit bytes
bin	-inf	0
bin	0	0
bin	200	0
bin	400	0
bin	600	0
bin	800	0
bin	1000	0
bin	1200	0
bin	1400	0
bin	1600	0
bin	1800	0
bin	2000	0
bin	2200	0
bin	2400	0
bin	2600	1
bin	2800	1
bin	3000	0
bin	3200	0
bin	3400	3
bin	3600	1
bin	3800	1
bin	4000	1
bin	4200	1
bin	4400	0
bin	4600	1
bin	4800	2
bin	5000	0
bin	5200	0
bin	5400	0
bin	5600	2
bin	5800	0
bin	6000	0
bin	6200	2
bin	6400	1
bin	6600	0
bin	6800	1
bin	7000	1
bin	7200	3
bin	7400	0
bin	7600	0
bin	7800	0
bin	8000	0
bin	8200	0
bin	8400	2
bin	8600	3
bin	8800	0
bin	9000	2
bin	9200	1
bin	9400	0
bin	9600	0
bin	9800	4
bin	10000	0
bin	10200	0
bin	10400	0
bin	10600	0
bin	10800	0
bin	11000	0
bin	11200	0
bin	11400	1
bin	11600	0
bin	11800	1
bin	12000	0
bin	12200	1
bin	12400	1
bin	12600	0
bin	12800	0
bin	13000	0
bin	13200	0
bin	13400	0
bin	13600	1
bin	13800	0
bin	14000	0
bin	14200	1
bin	14400	1
bin	14600	1
bin	14800	1
bin	15000	0
bin	15200	0
bin	15400	1
bin	15600	0
bin	15800	0
bin	16000	2
bin	16200	0
bin	16400	0
bin	16600	0
bin	16800	0
bin	17000	0
bin	17200	0
bin	17400	0
bin	17600	0
bin	17800	0
bin	18000	0
bin	18200	0
bin	18400	0
bin	18600	0
bin	18800	0
bin	19000	0
bin	19200	0
bin	19400	0
bin	19600	0
scalar Net60.rte[54].queue[1] txBytes:count 0
attr interpolationmode none
attr title "transmitting packet byte length, count"
attr unit bytes
scalar Net60.rte[54].queue[1] txBytes:sum 0
attr interpolationmode none
attr title "transmitting packet byte length, sum"
attr unit bytes
statistic Net60.rte[54].queue[1] txBytes:histogram
field count 0
field mean nan
field stddev nan
field min nan
field max nan
field sum 0
field sqrsum 0
attr interpolationmode none
attr title "transmitting packet byte length, histogram"
attr unit bytes
bin	-inf	0
bin	0	0
bin	1	0
scalar Net60.rte[54].queue[1] busy:timeavg 0
attr interpolationmode sample-hold
attr title "server busy state, timeavg"
scalar Net60.rte[54].queue[1] qlen:timeavg 0
attr interpolationmode sample-hold
attr title "queue length, timeavg"
scalar Net60.rte[54].queue[1] qlen:max 0
attr interpolationmode sample-hold
attr title "queue length, max"
scalar Net60.rte[54].queue[1] drop:count 0
attr interpolationmode none
attr title "dropped packet byte length, count"
attr unit bytes
scalar Net60.rte[54].queue[1] drop:sum 0
attr interpolationmode none
attr title "dropped packet byte length, sum"
attr unit bytes
statistic Net60.rte[55].routing outputIf:histogram
field count 89
field mean 0.48314606741573
field stddev 0.50254713823594
field min 0
field max 1
field sum 43
field sqrsum 43
attr interpolationmode none
attr title "output interface for each routed packet, histogram"
bin	-inf	0
bin	0	46
bin	1	43
bin	2	0
scalar Net60.rte[55].routing drop:count 0
attr interpolationmode none
attr title "dropped packet byte length, count"
attr unit bytes
scalar Net60.rte[55].routing drop:sum 0
attr interpolationmode none
attr title "dropped packet byte length, sum"
attr unit bytes
scalar Net60.rte[55].queue[0] rxBytes:count 0
attr interpolationmode none
attr title "received packet byte length, count"
attr unit bytes
scalar Net60.rte[55].queue[0] rxBytes:sum 0
attr interpolationmode none
attr title "received packet byte length, sum"
attr unit bytes
statistic Net60.rte[55].queue[0] rxBytes:histogram
field count 0
field mean nan
field stddev nan
field min nan
field max nan
field sum 0
field sqrsum 0
attr interpolationmode none
attr title "received packet byte length, histogram"
attr unit bytes
bin	-inf	0
bin	0	0
bin	1	0
scalar Net60.rte[55].queue[0] txBytes:count 46
attr interpolationmode none
attr title "transmitting packet byte length, count"
attr unit bytes
scalar Net60.rte[55].queue[0] txBytes:sum 391155
attr interpolationmode none
attr title "transmitting packet byte length, sum"
attr unit bytes
statistic Net60.rte[55].queue[0] txBytes:histogram
field count 46
field mean 8503.3695652174
field stddev 3934.5887960141
field min 2701
field max 16120
field sum 391155
field sqrsum 4022780027
attr interpolationmode none
attr title "transmitting packet byte length, histogram"
attr unit bytes
bin	-inf	0
bin	0	0
bin	200	0
bin	400	0
bin	600	0
bin	800	0
bin	1000	0
bin	1200	0
bin	1400	0
bin	1600	0
bin	1800	0
bin	2000	0
bin	2200	0
bin	2400	0
bin	2600	1
bin	2800	1
bin	3000	0
bin	3200	0
bin	3400	3
bin	3600	1
bin	3800	1
bin	4000	1
bin	4200	1
bin	4400	0
bin	4600	1
bin	4800	2
bin	5000	0
bin	5200	0
bin	5400	0
bin	5600	2
bin	5800	0
bin	6000	0
bin	6200	2
bin	6400	1
bin	6600	0
bin	6800	1
bin	7000	1
bin	7200	3
bin	7400	0
bin	7600	0
bin	7800	0
bin	8000	0
bin	8200	0
bin	8400	2
bin	8600	3
bin	8800	0
bin	9000	2
bin	9200	1
bin	9400	0
bin	9600	0
bin	9800	4
bin	10000	0
bin	10200	0
bin	10400	0
bin	10600	0
bin	10800	0
bin	11000	0
bin	11200	0
bin	11400	1
bin	11600	0
bin	11800	1
bin	12000	0
bin	12200	1
bin	12400	1
bin	12600	0
bin	12800	0
bin	13000	0
bin	13200	0
bin	13400	0
bin	13600	1
bin	13800	0
bin	14000	0
bin	14200	1
bin	14400	1
bin	14600	1
bin	14800	1
bin	15000	0
bin	15200	0
bin	15400	1
bin	15600	0
bin	15800	0
bin	16000	2
bin	16200	0
bin	16400	0
bin	16600	0
bin	16800	0
bin	17000	0
bin	17200	0
bin	17400	0
bin	17600	0
bin	17800	0
bin	18000	0
bin	18200	0
bin	18400	0
bin	18600	0
bin	18800	0
bin	19000	0
bin	19200	0
bin	19400	0
bin	19600	0
scalar Net60.rte[55].queue[0] busy:timeavg 8.8978616021795e-006
attr interpolationmode sample-hold
attr title "server busy state, timeavg"
scalar Net60.rte[55].queue[0] qlen:timeavg 0
attr interpolationmode sample-hold
attr title "queue length, timeavg"
scalar Net60.rte[55].queue[0] qlen:max 0
attr interpolationmode sample-hold
attr title "queue length, max"
scalar Net60.rte[55].queue[0] drop:count 0
attr interpolationmode none
attr title "dropped packet byte length, count"
attr unit bytes
scalar Net60.rte[55].queue[0] drop:sum 0
attr interpolationmode none
attr title "dropped packet byte length, sum"
attr unit bytes
scalar Net60.rte[55].queue[1] rxBytes:count 0
attr interpolationmode none
attr title "received packet byte length, count"
attr unit bytes
scalar Net60.rte[55].queue[1] rxBytes:sum 0
attr interpolationmode none
attr title "received packet byte length, sum"
attr unit bytes
statistic Net60.rte[55].queue[1] rxBytes:histogram
field count 0
field mean nan
field stddev nan
field min nan
field max nan
field sum 0
field sqrsum 0
attr interpolationmode none
attr title "received packet byte length, histogram"
attr unit bytes
bin	-inf	0
bin	0	0
bin	1	0
scalar Net60.rte[55].queue[1] txBytes:count 43
attr interpolationmode none
attr title "transmitting packet byte length, count"
attr unit bytes
scalar Net60.rte[55].queue[1] txBytes:sum 391924
attr interpolationmode none
attr title "transmitting packet byte length, sum"
attr unit bytes
statistic Net60.rte[55].queue[1] txBytes:histogram
field count 43
field mean 9114.511627907
field stddev 4307.4438745043
field min 2504
field max 15761
field sum 391924
field sqrsum 4351466910
attr interpolationmode none
attr title "transmitting packet byte length, histogram"
attr unit bytes
bin	-inf	0
bin	0	0
bin	200	0
bin	400	0
bin	600	0
bin	800	0
bin	1000	0
bin	1200	0
bin	1400	0
bin	1600	0
bin	1800	0
bin	2000	0
bin	2200	0
bin	2400	1
bin	2600	2
bin	2800	1
bin	3000	1
bin	3200	0
bin	3400	2
bin	3600	0
bin	3800	0
bin	4000	0
bin	4200	1
bin	4400	1
bin	4600	1
bin	4800	2
bin	5000	1
bin	5200	0
bin	5400	0
bin	5600	0
bin	5800	1
bin	6000	0
bin	6200	0
bin	6400	0
bin	6600	0
bin	6800	0
bin	7000	1
bin	7200	1
bin	7400	0
bin	7600	0
bin	7800	0
bin	8000	0
bin	8200	0
bin	8400	0
bin	8600	2
bin	8800	0
bin	9000	1
bin	9200	0
bin	9400	2
bin	9600	1
bin	9800	4
bin	10000	0
bin	10200	0
bin	10400	1
bin	10600	1
bin	10800	1
bin	11000	0
bin	11200	0
bin	11400	1
bin	11600	2
bin	11800	1
bin	12000	0
bin	12200	0
bin	12400	1
bin	12600	0
bin	12800	0
bin	13000	0
bin	13200	1
bin	13400	0
bin	13600	0
bin	13800	0
bin	14000	0
bin	14200	1
bin	14400	0
bin	14600	0
bin	14800	1
bin	15000	0
bin	15200	1
bin	15400	2
bin	15600	3
bin	15800	0
bin	16000	0
bin	16200	0
bin	16400	0
bin	16600	0
bin	16800	0
bin	17000	0
bin	17200	0
bin	17400	0
bin	17600	0
bin	17800	0
bin	18000	0
bin	18200	0
bin	18400	0
bin	18600	0
bin	18800	0
bin	19000	0
bin	19200	0
scalar Net60.rte[55].queue[1] busy:timeavg 8.915354554007e-006
attr interpolationmode sample-hold
attr title "server busy state, timeavg"
scalar Net60.rte[55].queue[1] qlen:timeavg 0
attr interpolationmode sample-hold
attr title "queue length, timeavg"
scalar Net60.rte[55].queue[1] qlen:max 0
attr interpolationmode sample-hold
attr title "queue length, max"
scalar Net60.rte[55].queue[1] drop:count 0
attr interpolationmode none
attr title "dropped packet byte length, count"
attr unit bytes
scalar Net60.rte[55].queue[1] drop:sum 0
attr interpolationmode none
attr title "dropped packet byte length, sum"
attr unit bytes
statistic Net60.rte[56].routing outputIf:histogram
field count 122
field mean 0
field stddev 0
field min 0
field max 0
field sum 0
field sqrsum 0
attr interpolationmode none
attr title "output interface for each routed packet, histogram"
bin	-inf	0
bin	-0.5	0
bin	-0.48	0
bin	-0.46	0
bin	-0.44	0
bin	-0.42	0
bin	-0.4	0
bin	-0.38	0
bin	-0.36	0
bin	-0.34	0
bin	-0.32	0
bin	-0.3	0
bin	-0.28	0
bin	-0.26	0
bin	-0.24	0
bin	-0.22	0
bin	-0.2	0
bin	-0.18	0
bin	-0.16	0
bin	-0.14	0
bin	-0.12	0
bin	-0.1	0
bin	-0.08	0
bin	-0.06	0
bin	-0.04	0
bin	-0.02	0
bin	0	122
bin	0.02	0
bin	0.04	0
bin	0.06	0
bin	0.08	0
bin	0.1	0
bin	0.12	0
bin	0.14	0
bin	0.16	0
bin	0.18	0
bin	0.2	0
bin	0.22	0
bin	0.24	0
bin	0.26	0
bin	0.28	0
bin	0.3	0
bin	0.32	0
bin	0.34	0
bin	0.36	0
bin	0.38	0
bin	0.4	0
bin	0.42	0
bin	0.44	0
bin	0.46	0
bin	0.48	0
bin	0.5	0
scalar Net60.rte[56].routing drop:count 0
attr interpolationmode none
attr title "dropped packet byte length, count"
attr unit bytes
scalar Net60.rte[56].routing drop:sum 0
attr interpolationmode none
attr title "dropped packet byte length, sum"
attr unit bytes
scalar Net60.rte[56].queue[0] rxBytes:count 0
attr interpolationmode none
attr title "received packet byte length, count"
attr unit bytes
scalar Net60.rte[56].queue[0] rxBytes:sum 0
attr interpolationmode none
attr title "received packet byte length, sum"
attr unit bytes
statistic Net60.rte[56].queue[0] rxBytes:histogram
field count 0
field mean nan
field stddev nan
field min nan
field max nan
field sum 0
field sqrsum 0
attr interpolationmode none
attr title "received packet byte length, histogram"
attr unit bytes
bin	-inf	0
bin	0	0
bin	1	0
scalar Net60.rte[56].queue[0] txBytes:count 122
attr interpolationmode none
attr title "transmitting packet byte length, count"
attr unit bytes
scalar Net60.rte[56].queue[0] txBytes:sum 1107698
attr interpolationmode none
attr title "transmitting packet byte length, sum"
attr unit bytes
statistic Net60.rte[56].queue[0] txBytes:histogram
field count 122
field mean 9079.4918032787
field stddev 3962.9960851617
field min 2155
field max 16064
field sum 1107698
field sqrsum 11957680806
attr interpolationmode none
attr title "transmitting packet byte length, histogram"
attr unit bytes
bin	-inf	0
bin	0	0
bin	200	0
bin	400	0
bin	600	0
bin	800	0
bin	1000	0
bin	1200	0
bin	1400	0
bin	1600	0
bin	1800	0
bin	2000	1
bin	2200	0
bin	2400	1
bin	2600	3
bin	2800	1
bin	3000	2
bin	3200	0
bin	3400	3
bin	3600	1
bin	3800	1
bin	4000	5
bin	4200	2
bin	4400	3
bin	4600	1
bin	4800	2
bin	5000	2
bin	5200	1
bin	5400	2
bin	5600	1
bin	5800	2
bin	6000	3
bin	6200	2
bin	6400	0
bin	6600	0
bin	6800	2
bin	7000	2
bin	7200	2
bin	7400	2
bin	7600	1
bin	7800	3
bin	8000	1
bin	8200	1
bin	8400	1
bin	8600	3
bin	8800	0
bin	9000	2
bin	9200	2
bin	9400	3
bin	9600	3
bin	9800	6
bin	10000	1
bin	10200	1
bin	10400	2
bin	10600	2
bin	10800	1
bin	11000	2
bin	11200	1
bin	11400	2
bin	11600	2
bin	11800	2
bin	12000	1
bin	12200	3
bin	12400	2
bin	12600	1
bin	12800	0
bin	13000	1
bin	13200	5
bin	13400	1
bin	13600	1
bin	13800	0
bin	14000	2
bin	14200	3
bin	14400	1
bin	14600	0
bin	14800	2
bin	15000	1
bin	15200	1
bin	15400	3
bin	15600	4
bin	15800	0
bin	16000	1
bin	16200	0
bin	16400	0
bin	16600	0
bin	16800	0
bin	17000	0
bin	17200	0
bin	17400	0
bin	17600	0
bin	17800	0
bin	18000	0
bin	18200	0
bin	18400	0
bin	18600	0
bin	18800	0
bin	19000	0
bin	19200	0
scalar Net60.rte[56].queue[0] busy:timeavg 2.519753934121e-005
attr interpolationmode sample-hold
attr title "server busy state, timeavg"
scalar Net60.rte[56].queue[0] qlen:timeavg 0
attr interpolationmode sample-hold
attr title "queue length, timeavg"
scalar Net60.rte[56].queue[0] qlen:max 0
attr interpolationmode sample-hold
attr title "queue length, max"
scalar Net60.rte[56].queue[0] drop:count 0
attr interpolationmode none
attr title "dropped packet byte length, count"
attr unit bytes
scalar Net60.rte[56].queue[0] drop:sum 0
attr interpolationmode none
attr title "dropped packet byte length, sum"
attr unit bytes
scalar Net60.rte[56].queue[1] rxBytes:count 43
attr interpolationmode none
attr title "received packet byte length, count"
attr unit bytes
scalar Net60.rte[56].queue[1] rxBytes:sum 391924
attr interpolationmode none
attr title "received packet byte length, sum"
attr unit bytes
statistic Net60.rte[56].queue[1] rxBytes:histogram
field count 43
field mean 9114.511627907
field stddev 4307.4438745043
field min 2504
field max 15761
field sum 391924
field sqrsum 4351466910
attr interpolationmode none
attr title "received packet byte length, histogram"
attr unit bytes
bin	-inf	0
bin	0	0
bin	200	0
bin	400	0
bin	600	0
bin	800	0
bin	1000	0
bin	1200	0
bin	1400	0
bin	1600	0
bin	1800	0
bin	2000	0
bin	2200	0
bin	2400	1
bin	2600	2
bin	2800	1
bin	3000	1
bin	3200	0
bin	3400	2
bin	3600	0
bin	3800	0
bin	4000	0
bin	4200	1
bin	4400	1
bin	4600	1
bin	4800	2
bin	5000	1
bin	5200	0
bin	5400	0
bin	5600	0
bin	5800	1
bin	6000	0
bin	6200	0
bin	6400	0
bin	6600	0
bin	6800	0
bin	7000	1
bin	7200	1
bin	7400	0
bin	7600	0
bin	7800	0
bin	8000	0
bin	8200	0
bin	8400	0
bin	8600	2
bin	8800	0
bin	9000	1
bin	9200	0
bin	9400	2
bin	9600	1
bin	9800	4
bin	10000	0
bin	10200	0
bin	10400	1
bin	10600	1
bin	10800	1
bin	11000	0
bin	11200	0
bin	11400	1
bin	11600	2
bin	11800	1
bin	12000	0
bin	12200	0
bin	12400	1
bin	12600	0
bin	12800	0
bin	13000	0
bin	13200	1
bin	13400	0
bin	13600	0
bin	13800	0
bin	14000	0
bin	14200	1
bin	14400	0
bin	14600	0
bin	14800	1
bin	15000	0
bin	15200	1
bin	15400	2
bin	15600	3
bin	15800	0
bin	16000	0
bin	16200	0
bin	16400	0
bin	16600	0
bin	16800	0
bin	17000	0
bin	17200	0
bin	17400	0
bin	17600	0
bin	17800	0
bin	18000	0
bin	18200	0
bin	18400	0
bin	18600	0
bin	18800	0
bin	19000	0
bin	19200	0
scalar Net60.rte[56].queue[1] txBytes:count 0
attr interpolationmode none
attr title "transmitting packet byte length, count"
attr unit bytes
scalar Net60.rte[56].queue[1] txBytes:sum 0
attr interpolationmode none
attr title "transmitting packet byte length, sum"
attr unit bytes
statistic Net60.rte[56].queue[1] txBytes:histogram
field count 0
field mean nan
field stddev nan
field min nan
field max nan
field sum 0
field sqrsum 0
attr interpolationmode none
attr title "transmitting packet byte length, histogram"
attr unit bytes
bin	-inf	0
bin	0	0
bin	1	0
scalar Net60.rte[56].queue[1] busy:timeavg 0
attr interpolationmode sample-hold
attr title "server busy state, timeavg"
scalar Net60.rte[56].queue[1] qlen:timeavg 0
attr interpolationmode sample-hold
attr title "queue length, timeavg"
scalar Net60.rte[56].queue[1] qlen:max 0
attr interpolationmode sample-hold
attr title "queue length, max"
scalar Net60.rte[56].queue[1] drop:count 0
attr interpolationmode none
attr title "dropped packet byte length, count"
attr unit bytes
scalar Net60.rte[56].queue[1] drop:sum 0
attr interpolationmode none
attr title "dropped packet byte length, sum"
attr unit bytes

