version 2
run Net60StoreAndForward-0-20210316-23:25:01-9808
attr configname Net60StoreAndForward
attr datetime 20210316-23:25:01
attr experiment Net60StoreAndForward
attr inifile omnetpp.ini
attr iterationvars ""
attr iterationvarsf ""
attr measurement ""
attr network networks.Net60
attr processid 9808
attr repetition 0
attr replication #0
attr resultdir results
attr runnumber 0
attr seedset 0
param **.app.packetLength "32768 bytes"
param **.destAddresses "\"1 50\""
param **.sendIaTime "uniform(1ms, 5ms)"
param **.appType "\"App\""
param **.app.packetLength "4096 bytes"

scalar Net60.rte[0].app hopCount:mean nan
attr interpolationmode none
attr title "hop count of arrived packets, mean"
scalar Net60.rte[0].app hopCount:max nan
attr interpolationmode none
attr title "hop count of arrived packets, max"
scalar Net60.rte[0].app endToEndDelay:mean nan
attr interpolationmode none
attr title "end-to-end delay of arrived packets, mean"
attr unit s
scalar Net60.rte[0].app endToEndDelay:max nan
attr interpolationmode none
attr title "end-to-end delay of arrived packets, max"
attr unit s
statistic Net60.rte[0].routing outputIf:histogram
field count 4
field mean 0
field stddev 0
field min 0
field max 0
field sum 0
field sqrsum 0
attr interpolationmode none
attr title "output interface for each routed packet, histogram"
bin	-inf	0
bin	-0.5	0
bin	-0.48	0
bin	-0.46	0
bin	-0.44	0
bin	-0.42	0
bin	-0.4	0
bin	-0.38	0
bin	-0.36	0
bin	-0.34	0
bin	-0.32	0
bin	-0.3	0
bin	-0.28	0
bin	-0.26	0
bin	-0.24	0
bin	-0.22	0
bin	-0.2	0
bin	-0.18	0
bin	-0.16	0
bin	-0.14	0
bin	-0.12	0
bin	-0.1	0
bin	-0.08	0
bin	-0.06	0
bin	-0.04	0
bin	-0.02	0
bin	0	4
bin	0.02	0
bin	0.04	0
bin	0.06	0
bin	0.08	0
bin	0.1	0
bin	0.12	0
bin	0.14	0
bin	0.16	0
bin	0.18	0
bin	0.2	0
bin	0.22	0
bin	0.24	0
bin	0.26	0
bin	0.28	0
bin	0.3	0
bin	0.32	0
bin	0.34	0
bin	0.36	0
bin	0.38	0
bin	0.4	0
bin	0.42	0
bin	0.44	0
bin	0.46	0
bin	0.48	0
bin	0.5	0
scalar Net60.rte[0].routing drop:count 0
attr interpolationmode none
attr title "dropped packet byte length, count"
attr unit bytes
scalar Net60.rte[0].routing drop:sum 0
attr interpolationmode none
attr title "dropped packet byte length, sum"
attr unit bytes
scalar Net60.rte[0].queue[0] rxBytes:count 0
attr interpolationmode none
attr title "received packet byte length, count"
attr unit bytes
scalar Net60.rte[0].queue[0] rxBytes:sum 0
attr interpolationmode none
attr title "received packet byte length, sum"
attr unit bytes
statistic Net60.rte[0].queue[0] rxBytes:histogram
field count 0
field mean nan
field stddev nan
field min nan
field max nan
field sum 0
field sqrsum 0
attr interpolationmode none
attr title "received packet byte length, histogram"
attr unit bytes
bin	-inf	0
bin	0	0
bin	1	0
scalar Net60.rte[0].queue[0] txBytes:count 4
attr interpolationmode none
attr title "transmitting packet byte length, count"
attr unit bytes
scalar Net60.rte[0].queue[0] txBytes:sum 131072
attr interpolationmode none
attr title "transmitting packet byte length, sum"
attr unit bytes
statistic Net60.rte[0].queue[0] txBytes:histogram
field count 4
field mean 32768
field stddev 0
field min 32768
field max 32768
field sum 131072
field sqrsum 4294967296
attr interpolationmode none
attr title "transmitting packet byte length, histogram"
attr unit bytes
bin	-inf	0
bin	32767	0
bin	32768	4
bin	32769	0
scalar Net60.rte[0].queue[0] busy:timeavg 0.079623232107822
attr interpolationmode sample-hold
attr title "server busy state, timeavg"
scalar Net60.rte[0].queue[0] qlen:timeavg 0
attr interpolationmode sample-hold
attr title "queue length, timeavg"
scalar Net60.rte[0].queue[0] qlen:max 0
attr interpolationmode sample-hold
attr title "queue length, max"
scalar Net60.rte[0].queue[0] drop:count 0
attr interpolationmode none
attr title "dropped packet byte length, count"
attr unit bytes
scalar Net60.rte[0].queue[0] drop:sum 0
attr interpolationmode none
attr title "dropped packet byte length, sum"
attr unit bytes
scalar Net60.rte[1].app hopCount:mean 5.775
attr interpolationmode none
attr title "hop count of arrived packets, mean"
scalar Net60.rte[1].app hopCount:max 13
attr interpolationmode none
attr title "hop count of arrived packets, max"
scalar Net60.rte[1].app endToEndDelay:mean 0.003695472681025
attr interpolationmode none
attr title "end-to-end delay of arrived packets, mean"
attr unit s
scalar Net60.rte[1].app endToEndDelay:max 0.008490304177
attr interpolationmode none
attr title "end-to-end delay of arrived packets, max"
attr unit s
statistic Net60.rte[1].routing outputIf:histogram
field count 49
field mean -0.44897959183673
field stddev 1.1736911946539
field min -1
field max 2
field sum -22
field sqrsum 76
attr interpolationmode none
attr title "output interface for each routed packet, histogram"
bin	-inf	0
bin	-2	0
bin	-1	40
bin	0	0
bin	1	0
bin	2	9
bin	3	0
scalar Net60.rte[1].routing drop:count 0
attr interpolationmode none
attr title "dropped packet byte length, count"
attr unit bytes
scalar Net60.rte[1].routing drop:sum 0
attr interpolationmode none
attr title "dropped packet byte length, sum"
attr unit bytes
scalar Net60.rte[1].queue[0] rxBytes:count 4
attr interpolationmode none
attr title "received packet byte length, count"
attr unit bytes
scalar Net60.rte[1].queue[0] rxBytes:sum 131072
attr interpolationmode none
attr title "received packet byte length, sum"
attr unit bytes
statistic Net60.rte[1].queue[0] rxBytes:histogram
field count 4
field mean 32768
field stddev 0
field min 32768
field max 32768
field sum 131072
field sqrsum 4294967296
attr interpolationmode none
attr title "received packet byte length, histogram"
attr unit bytes
bin	-inf	0
bin	32767	0
bin	32768	4
bin	32769	0
scalar Net60.rte[1].queue[0] txBytes:count 0
attr interpolationmode none
attr title "transmitting packet byte length, count"
attr unit bytes
scalar Net60.rte[1].queue[0] txBytes:sum 0
attr interpolationmode none
attr title "transmitting packet byte length, sum"
attr unit bytes
statistic Net60.rte[1].queue[0] txBytes:histogram
field count 0
field mean nan
field stddev nan
field min nan
field max nan
field sum 0
field sqrsum 0
attr interpolationmode none
attr title "transmitting packet byte length, histogram"
attr unit bytes
bin	-inf	0
bin	0	0
bin	1	0
scalar Net60.rte[1].queue[0] busy:timeavg 0
attr interpolationmode sample-hold
attr title "server busy state, timeavg"
scalar Net60.rte[1].queue[0] qlen:timeavg 0
attr interpolationmode sample-hold
attr title "queue length, timeavg"
scalar Net60.rte[1].queue[0] qlen:max 0
attr interpolationmode sample-hold
attr title "queue length, max"
scalar Net60.rte[1].queue[0] drop:count 0
attr interpolationmode none
attr title "dropped packet byte length, count"
attr unit bytes
scalar Net60.rte[1].queue[0] drop:sum 0
attr interpolationmode none
attr title "dropped packet byte length, sum"
attr unit bytes
scalar Net60.rte[1].queue[1] rxBytes:count 4
attr interpolationmode none
attr title "received packet byte length, count"
attr unit bytes
scalar Net60.rte[1].queue[1] rxBytes:sum 131072
attr interpolationmode none
attr title "received packet byte length, sum"
attr unit bytes
statistic Net60.rte[1].queue[1] rxBytes:histogram
field count 4
field mean 32768
field stddev 0
field min 32768
field max 32768
field sum 131072
field sqrsum 4294967296
attr interpolationmode none
attr title "received packet byte length, histogram"
attr unit bytes
bin	-inf	0
bin	32767	0
bin	32768	4
bin	32769	0
scalar Net60.rte[1].queue[1] txBytes:count 0
attr interpolationmode none
attr title "transmitting packet byte length, count"
attr unit bytes
scalar Net60.rte[1].queue[1] txBytes:sum 0
attr interpolationmode none
attr title "transmitting packet byte length, sum"
attr unit bytes
statistic Net60.rte[1].queue[1] txBytes:histogram
field count 0
field mean nan
field stddev nan
field min nan
field max nan
field sum 0
field sqrsum 0
attr interpolationmode none
attr title "transmitting packet byte length, histogram"
attr unit bytes
bin	-inf	0
bin	0	0
bin	1	0
scalar Net60.rte[1].queue[1] busy:timeavg 0
attr interpolationmode sample-hold
attr title "server busy state, timeavg"
scalar Net60.rte[1].queue[1] qlen:timeavg 0
attr interpolationmode sample-hold
attr title "queue length, timeavg"
scalar Net60.rte[1].queue[1] qlen:max 0
attr interpolationmode sample-hold
attr title "queue length, max"
scalar Net60.rte[1].queue[1] drop:count 0
attr interpolationmode none
attr title "dropped packet byte length, count"
attr unit bytes
scalar Net60.rte[1].queue[1] drop:sum 0
attr interpolationmode none
attr title "dropped packet byte length, sum"
attr unit bytes
scalar Net60.rte[1].queue[2] rxBytes:count 36
attr interpolationmode none
attr title "received packet byte length, count"
attr unit bytes
scalar Net60.rte[1].queue[2] rxBytes:sum 1179648
attr interpolationmode none
attr title "received packet byte length, sum"
attr unit bytes
statistic Net60.rte[1].queue[2] rxBytes:histogram
field count 36
field mean 32768
field stddev 0
field min 32768
field max 32768
field sum 1179648
field sqrsum 38654705664
attr interpolationmode none
attr title "received packet byte length, histogram"
attr unit bytes
bin	-inf	0
bin	32767	0
bin	32768	36
bin	32769	0
scalar Net60.rte[1].queue[2] txBytes:count 9
attr interpolationmode none
attr title "transmitting packet byte length, count"
attr unit bytes
scalar Net60.rte[1].queue[2] txBytes:sum 294912
attr interpolationmode none
attr title "transmitting packet byte length, sum"
attr unit bytes
statistic Net60.rte[1].queue[2] txBytes:histogram
field count 9
field mean 32768
field stddev 0
field min 32768
field max 32768
field sum 294912
field sqrsum 9663676416
attr interpolationmode none
attr title "transmitting packet byte length, histogram"
attr unit bytes
bin	-inf	0
bin	32767	0
bin	32768	9
bin	32769	0
scalar Net60.rte[1].queue[2] busy:timeavg 0.16977549589593
attr interpolationmode sample-hold
attr title "server busy state, timeavg"
scalar Net60.rte[1].queue[2] qlen:timeavg 0.0078827816084032
attr interpolationmode sample-hold
attr title "queue length, timeavg"
scalar Net60.rte[1].queue[2] qlen:max 1
attr interpolationmode sample-hold
attr title "queue length, max"
scalar Net60.rte[1].queue[2] drop:count 0
attr interpolationmode none
attr title "dropped packet byte length, count"
attr unit bytes
scalar Net60.rte[1].queue[2] drop:sum 0
attr interpolationmode none
attr title "dropped packet byte length, sum"
attr unit bytes
scalar Net60.rte[2].app hopCount:mean nan
attr interpolationmode none
attr title "hop count of arrived packets, mean"
scalar Net60.rte[2].app hopCount:max nan
attr interpolationmode none
attr title "hop count of arrived packets, max"
scalar Net60.rte[2].app endToEndDelay:mean nan
attr interpolationmode none
attr title "end-to-end delay of arrived packets, mean"
attr unit s
scalar Net60.rte[2].app endToEndDelay:max nan
attr interpolationmode none
attr title "end-to-end delay of arrived packets, max"
attr unit s
statistic Net60.rte[2].routing outputIf:histogram
field count 4
field mean 0
field stddev 0
field min 0
field max 0
field sum 0
field sqrsum 0
attr interpolationmode none
attr title "output interface for each routed packet, histogram"
bin	-inf	0
bin	-0.5	0
bin	-0.48	0
bin	-0.46	0
bin	-0.44	0
bin	-0.42	0
bin	-0.4	0
bin	-0.38	0
bin	-0.36	0
bin	-0.34	0
bin	-0.32	0
bin	-0.3	0
bin	-0.28	0
bin	-0.26	0
bin	-0.24	0
bin	-0.22	0
bin	-0.2	0
bin	-0.18	0
bin	-0.16	0
bin	-0.14	0
bin	-0.12	0
bin	-0.1	0
bin	-0.08	0
bin	-0.06	0
bin	-0.04	0
bin	-0.02	0
bin	0	4
bin	0.02	0
bin	0.04	0
bin	0.06	0
bin	0.08	0
bin	0.1	0
bin	0.12	0
bin	0.14	0
bin	0.16	0
bin	0.18	0
bin	0.2	0
bin	0.22	0
bin	0.24	0
bin	0.26	0
bin	0.28	0
bin	0.3	0
bin	0.32	0
bin	0.34	0
bin	0.36	0
bin	0.38	0
bin	0.4	0
bin	0.42	0
bin	0.44	0
bin	0.46	0
bin	0.48	0
bin	0.5	0
scalar Net60.rte[2].routing drop:count 0
attr interpolationmode none
attr title "dropped packet byte length, count"
attr unit bytes
scalar Net60.rte[2].routing drop:sum 0
attr interpolationmode none
attr title "dropped packet byte length, sum"
attr unit bytes
scalar Net60.rte[2].queue[0] rxBytes:count 0
attr interpolationmode none
attr title "received packet byte length, count"
attr unit bytes
scalar Net60.rte[2].queue[0] rxBytes:sum 0
attr interpolationmode none
attr title "received packet byte length, sum"
attr unit bytes
statistic Net60.rte[2].queue[0] rxBytes:histogram
field count 0
field mean nan
field stddev nan
field min nan
field max nan
field sum 0
field sqrsum 0
attr interpolationmode none
attr title "received packet byte length, histogram"
attr unit bytes
bin	-inf	0
bin	0	0
bin	1	0
scalar Net60.rte[2].queue[0] txBytes:count 4
attr interpolationmode none
attr title "transmitting packet byte length, count"
attr unit bytes
scalar Net60.rte[2].queue[0] txBytes:sum 131072
attr interpolationmode none
attr title "transmitting packet byte length, sum"
attr unit bytes
statistic Net60.rte[2].queue[0] txBytes:histogram
field count 4
field mean 32768
field stddev 0
field min 32768
field max 32768
field sum 131072
field sqrsum 4294967296
attr interpolationmode none
attr title "transmitting packet byte length, histogram"
attr unit bytes
bin	-inf	0
bin	32767	0
bin	32768	4
bin	32769	0
scalar Net60.rte[2].queue[0] busy:timeavg 0.079623232107822
attr interpolationmode sample-hold
attr title "server busy state, timeavg"
scalar Net60.rte[2].queue[0] qlen:timeavg 0
attr interpolationmode sample-hold
attr title "queue length, timeavg"
scalar Net60.rte[2].queue[0] qlen:max 0
attr interpolationmode sample-hold
attr title "queue length, max"
scalar Net60.rte[2].queue[0] drop:count 0
attr interpolationmode none
attr title "dropped packet byte length, count"
attr unit bytes
scalar Net60.rte[2].queue[0] drop:sum 0
attr interpolationmode none
attr title "dropped packet byte length, sum"
attr unit bytes
scalar Net60.rte[3].app hopCount:mean nan
attr interpolationmode none
attr title "hop count of arrived packets, mean"
scalar Net60.rte[3].app hopCount:max nan
attr interpolationmode none
attr title "hop count of arrived packets, max"
scalar Net60.rte[3].app endToEndDelay:mean nan
attr interpolationmode none
attr title "end-to-end delay of arrived packets, mean"
attr unit s
scalar Net60.rte[3].app endToEndDelay:max nan
attr interpolationmode none
attr title "end-to-end delay of arrived packets, max"
attr unit s
statistic Net60.rte[3].routing outputIf:histogram
field count 3
field mean 0
field stddev 0
field min 0
field max 0
field sum 0
field sqrsum 0
attr interpolationmode none
attr title "output interface for each routed packet, histogram"
bin	-inf	0
bin	-0.5	0
bin	-0.48	0
bin	-0.46	0
bin	-0.44	0
bin	-0.42	0
bin	-0.4	0
bin	-0.38	0
bin	-0.36	0
bin	-0.34	0
bin	-0.32	0
bin	-0.3	0
bin	-0.28	0
bin	-0.26	0
bin	-0.24	0
bin	-0.22	0
bin	-0.2	0
bin	-0.18	0
bin	-0.16	0
bin	-0.14	0
bin	-0.12	0
bin	-0.1	0
bin	-0.08	0
bin	-0.06	0
bin	-0.04	0
bin	-0.02	0
bin	0	3
bin	0.02	0
bin	0.04	0
bin	0.06	0
bin	0.08	0
bin	0.1	0
bin	0.12	0
bin	0.14	0
bin	0.16	0
bin	0.18	0
bin	0.2	0
bin	0.22	0
bin	0.24	0
bin	0.26	0
bin	0.28	0
bin	0.3	0
bin	0.32	0
bin	0.34	0
bin	0.36	0
bin	0.38	0
bin	0.4	0
bin	0.42	0
bin	0.44	0
bin	0.46	0
bin	0.48	0
bin	0.5	0
scalar Net60.rte[3].routing drop:count 0
attr interpolationmode none
attr title "dropped packet byte length, count"
attr unit bytes
scalar Net60.rte[3].routing drop:sum 0
attr interpolationmode none
attr title "dropped packet byte length, sum"
attr unit bytes
scalar Net60.rte[3].queue[0] rxBytes:count 0
attr interpolationmode none
attr title "received packet byte length, count"
attr unit bytes
scalar Net60.rte[3].queue[0] rxBytes:sum 0
attr interpolationmode none
attr title "received packet byte length, sum"
attr unit bytes
statistic Net60.rte[3].queue[0] rxBytes:histogram
field count 0
field mean nan
field stddev nan
field min nan
field max nan
field sum 0
field sqrsum 0
attr interpolationmode none
attr title "received packet byte length, histogram"
attr unit bytes
bin	-inf	0
bin	0	0
bin	1	0
scalar Net60.rte[3].queue[0] txBytes:count 3
attr interpolationmode none
attr title "transmitting packet byte length, count"
attr unit bytes
scalar Net60.rte[3].queue[0] txBytes:sum 98304
attr interpolationmode none
attr title "transmitting packet byte length, sum"
attr unit bytes
statistic Net60.rte[3].queue[0] txBytes:histogram
field count 3
field mean 32768
field stddev 0
field min 32768
field max 32768
field sum 98304
field sqrsum 3221225472
attr interpolationmode none
attr title "transmitting packet byte length, histogram"
attr unit bytes
bin	-inf	0
bin	32767	0
bin	32768	3
bin	32769	0
scalar Net60.rte[3].queue[0] busy:timeavg 0.059717424080866
attr interpolationmode sample-hold
attr title "server busy state, timeavg"
scalar Net60.rte[3].queue[0] qlen:timeavg 0
attr interpolationmode sample-hold
attr title "queue length, timeavg"
scalar Net60.rte[3].queue[0] qlen:max 0
attr interpolationmode sample-hold
attr title "queue length, max"
scalar Net60.rte[3].queue[0] drop:count 0
attr interpolationmode none
attr title "dropped packet byte length, count"
attr unit bytes
scalar Net60.rte[3].queue[0] drop:sum 0
attr interpolationmode none
attr title "dropped packet byte length, sum"
attr unit bytes
scalar Net60.rte[4].app hopCount:mean nan
attr interpolationmode none
attr title "hop count of arrived packets, mean"
scalar Net60.rte[4].app hopCount:max nan
attr interpolationmode none
attr title "hop count of arrived packets, max"
scalar Net60.rte[4].app endToEndDelay:mean nan
attr interpolationmode none
attr title "end-to-end delay of arrived packets, mean"
attr unit s
scalar Net60.rte[4].app endToEndDelay:max nan
attr interpolationmode none
attr title "end-to-end delay of arrived packets, max"
attr unit s
statistic Net60.rte[4].routing outputIf:histogram
field count 70
field mean 0.42857142857143
field stddev 0.82657716739854
field min 0
field max 2
field sum 30
field sqrsum 60
attr interpolationmode none
attr title "output interface for each routed packet, histogram"
bin	-inf	0
bin	0	55
bin	1	0
bin	2	15
bin	3	0
scalar Net60.rte[4].routing drop:count 0
attr interpolationmode none
attr title "dropped packet byte length, count"
attr unit bytes
scalar Net60.rte[4].routing drop:sum 0
attr interpolationmode none
attr title "dropped packet byte length, sum"
attr unit bytes
scalar Net60.rte[4].queue[0] rxBytes:count 8
attr interpolationmode none
attr title "received packet byte length, count"
attr unit bytes
scalar Net60.rte[4].queue[0] rxBytes:sum 262144
attr interpolationmode none
attr title "received packet byte length, sum"
attr unit bytes
statistic Net60.rte[4].queue[0] rxBytes:histogram
field count 8
field mean 32768
field stddev 0
field min 32768
field max 32768
field sum 262144
field sqrsum 8589934592
attr interpolationmode none
attr title "received packet byte length, histogram"
attr unit bytes
bin	-inf	0
bin	32767	0
bin	32768	8
bin	32769	0
scalar Net60.rte[4].queue[0] txBytes:count 38
attr interpolationmode none
attr title "transmitting packet byte length, count"
attr unit bytes
scalar Net60.rte[4].queue[0] txBytes:sum 1245184
attr interpolationmode none
attr title "transmitting packet byte length, sum"
attr unit bytes
statistic Net60.rte[4].queue[0] txBytes:histogram
field count 38
field mean 32768
field stddev 0
field min 32768
field max 32768
field sum 1245184
field sqrsum 40802189312
attr interpolationmode none
attr title "transmitting packet byte length, histogram"
attr unit bytes
bin	-inf	0
bin	32767	0
bin	32768	38
bin	32769	0
scalar Net60.rte[4].queue[0] busy:timeavg 0.74038654279175
attr interpolationmode sample-hold
attr title "server busy state, timeavg"
scalar Net60.rte[4].queue[0] qlen:timeavg 5.4537780515735
attr interpolationmode sample-hold
attr title "queue length, timeavg"
scalar Net60.rte[4].queue[0] qlen:max 18
attr interpolationmode sample-hold
attr title "queue length, max"
scalar Net60.rte[4].queue[0] drop:count 0
attr interpolationmode none
attr title "dropped packet byte length, count"
attr unit bytes
scalar Net60.rte[4].queue[0] drop:sum 0
attr interpolationmode none
attr title "dropped packet byte length, sum"
attr unit bytes
scalar Net60.rte[4].queue[1] rxBytes:count 3
attr interpolationmode none
attr title "received packet byte length, count"
attr unit bytes
scalar Net60.rte[4].queue[1] rxBytes:sum 98304
attr interpolationmode none
attr title "received packet byte length, sum"
attr unit bytes
statistic Net60.rte[4].queue[1] rxBytes:histogram
field count 3
field mean 32768
field stddev 0
field min 32768
field max 32768
field sum 98304
field sqrsum 3221225472
attr interpolationmode none
attr title "received packet byte length, histogram"
attr unit bytes
bin	-inf	0
bin	32767	0
bin	32768	3
bin	32769	0
scalar Net60.rte[4].queue[1] txBytes:count 0
attr interpolationmode none
attr title "transmitting packet byte length, count"
attr unit bytes
scalar Net60.rte[4].queue[1] txBytes:sum 0
attr interpolationmode none
attr title "transmitting packet byte length, sum"
attr unit bytes
statistic Net60.rte[4].queue[1] txBytes:histogram
field count 0
field mean nan
field stddev nan
field min nan
field max nan
field sum 0
field sqrsum 0
attr interpolationmode none
attr title "transmitting packet byte length, histogram"
attr unit bytes
bin	-inf	0
bin	0	0
bin	1	0
scalar Net60.rte[4].queue[1] busy:timeavg 0
attr interpolationmode sample-hold
attr title "server busy state, timeavg"
scalar Net60.rte[4].queue[1] qlen:timeavg 0
attr interpolationmode sample-hold
attr title "queue length, timeavg"
scalar Net60.rte[4].queue[1] qlen:max 0
attr interpolationmode sample-hold
attr title "queue length, max"
scalar Net60.rte[4].queue[1] drop:count 0
attr interpolationmode none
attr title "dropped packet byte length, count"
attr unit bytes
scalar Net60.rte[4].queue[1] drop:sum 0
attr interpolationmode none
attr title "dropped packet byte length, sum"
attr unit bytes
scalar Net60.rte[4].queue[2] rxBytes:count 37
attr interpolationmode none
attr title "received packet byte length, count"
attr unit bytes
scalar Net60.rte[4].queue[2] rxBytes:sum 1212416
attr interpolationmode none
attr title "received packet byte length, sum"
attr unit bytes
statistic Net60.rte[4].queue[2] rxBytes:histogram
field count 37
field mean 32768
field stddev 0
field min 32768
field max 32768
field sum 1212416
field sqrsum 39728447488
attr interpolationmode none
attr title "received packet byte length, histogram"
attr unit bytes
bin	-inf	0
bin	32767	0
bin	32768	37
bin	32769	0
scalar Net60.rte[4].queue[2] txBytes:count 14
attr interpolationmode none
attr title "transmitting packet byte length, count"
attr unit bytes
scalar Net60.rte[4].queue[2] txBytes:sum 458752
attr interpolationmode none
attr title "transmitting packet byte length, sum"
attr unit bytes
statistic Net60.rte[4].queue[2] txBytes:histogram
field count 14
field mean 32768
field stddev 0
field min 32768
field max 32768
field sum 458752
field sqrsum 15032385536
attr interpolationmode none
attr title "transmitting packet byte length, histogram"
attr unit bytes
bin	-inf	0
bin	32767	0
bin	32768	14
bin	32769	0
scalar Net60.rte[4].queue[2] busy:timeavg 0.26480871402024
attr interpolationmode sample-hold
attr title "server busy state, timeavg"
scalar Net60.rte[4].queue[2] qlen:timeavg 0.029770323901621
attr interpolationmode sample-hold
attr title "queue length, timeavg"
scalar Net60.rte[4].queue[2] qlen:max 1
attr interpolationmode sample-hold
attr title "queue length, max"
scalar Net60.rte[4].queue[2] drop:count 0
attr interpolationmode none
attr title "dropped packet byte length, count"
attr unit bytes
scalar Net60.rte[4].queue[2] drop:sum 0
attr interpolationmode none
attr title "dropped packet byte length, sum"
attr unit bytes
scalar Net60.rte[4].queue[3] rxBytes:count 17
attr interpolationmode none
attr title "received packet byte length, count"
attr unit bytes
scalar Net60.rte[4].queue[3] rxBytes:sum 557056
attr interpolationmode none
attr title "received packet byte length, sum"
attr unit bytes
statistic Net60.rte[4].queue[3] rxBytes:histogram
field count 17
field mean 32768
field stddev 0
field min 32768
field max 32768
field sum 557056
field sqrsum 18253611008
attr interpolationmode none
attr title "received packet byte length, histogram"
attr unit bytes
bin	-inf	0
bin	32767	0
bin	32768	17
bin	32769	0
scalar Net60.rte[4].queue[3] txBytes:count 0
attr interpolationmode none
attr title "transmitting packet byte length, count"
attr unit bytes
scalar Net60.rte[4].queue[3] txBytes:sum 0
attr interpolationmode none
attr title "transmitting packet byte length, sum"
attr unit bytes
statistic Net60.rte[4].queue[3] txBytes:histogram
field count 0
field mean nan
field stddev nan
field min nan
field max nan
field sum 0
field sqrsum 0
attr interpolationmode none
attr title "transmitting packet byte length, histogram"
attr unit bytes
bin	-inf	0
bin	0	0
bin	1	0
scalar Net60.rte[4].queue[3] busy:timeavg 0
attr interpolationmode sample-hold
attr title "server busy state, timeavg"
scalar Net60.rte[4].queue[3] qlen:timeavg 0
attr interpolationmode sample-hold
attr title "queue length, timeavg"
scalar Net60.rte[4].queue[3] qlen:max 0
attr interpolationmode sample-hold
attr title "queue length, max"
scalar Net60.rte[4].queue[3] drop:count 0
attr interpolationmode none
attr title "dropped packet byte length, count"
attr unit bytes
scalar Net60.rte[4].queue[3] drop:sum 0
attr interpolationmode none
attr title "dropped packet byte length, sum"
attr unit bytes
scalar Net60.rte[5].app hopCount:mean nan
attr interpolationmode none
attr title "hop count of arrived packets, mean"
scalar Net60.rte[5].app hopCount:max nan
attr interpolationmode none
attr title "hop count of arrived packets, max"
scalar Net60.rte[5].app endToEndDelay:mean nan
attr interpolationmode none
attr title "end-to-end delay of arrived packets, mean"
attr unit s
scalar Net60.rte[5].app endToEndDelay:max nan
attr interpolationmode none
attr title "end-to-end delay of arrived packets, max"
attr unit s
statistic Net60.rte[5].routing outputIf:histogram
field count 56
field mean 0.5
field stddev 0.8738628975053
field min 0
field max 2
field sum 28
field sqrsum 56
attr interpolationmode none
attr title "output interface for each routed packet, histogram"
bin	-inf	0
bin	0	42
bin	1	0
bin	2	14
bin	3	0
scalar Net60.rte[5].routing drop:count 0
attr interpolationmode none
attr title "dropped packet byte length, count"
attr unit bytes
scalar Net60.rte[5].routing drop:sum 0
attr interpolationmode none
attr title "dropped packet byte length, sum"
attr unit bytes
scalar Net60.rte[5].queue[0] rxBytes:count 12
attr interpolationmode none
attr title "received packet byte length, count"
attr unit bytes
scalar Net60.rte[5].queue[0] rxBytes:sum 393216
attr interpolationmode none
attr title "received packet byte length, sum"
attr unit bytes
statistic Net60.rte[5].queue[0] rxBytes:histogram
field count 12
field mean 32768
field stddev 0
field min 32768
field max 32768
field sum 393216
field sqrsum 12884901888
attr interpolationmode none
attr title "received packet byte length, histogram"
attr unit bytes
bin	-inf	0
bin	32767	0
bin	32768	12
bin	32769	0
scalar Net60.rte[5].queue[0] txBytes:count 38
attr interpolationmode none
attr title "transmitting packet byte length, count"
attr unit bytes
scalar Net60.rte[5].queue[0] txBytes:sum 1245184
attr interpolationmode none
attr title "transmitting packet byte length, sum"
attr unit bytes
statistic Net60.rte[5].queue[0] txBytes:histogram
field count 38
field mean 32768
field stddev 0
field min 32768
field max 32768
field sum 1245184
field sqrsum 40802189312
attr interpolationmode none
attr title "transmitting packet byte length, histogram"
attr unit bytes
bin	-inf	0
bin	32767	0
bin	32768	38
bin	32769	0
scalar Net60.rte[5].queue[0] busy:timeavg 0.75292863481116
attr interpolationmode sample-hold
attr title "server busy state, timeavg"
scalar Net60.rte[5].queue[0] qlen:timeavg 1.2984222774818
attr interpolationmode sample-hold
attr title "queue length, timeavg"
scalar Net60.rte[5].queue[0] qlen:max 4
attr interpolationmode sample-hold
attr title "queue length, max"
scalar Net60.rte[5].queue[0] drop:count 0
attr interpolationmode none
attr title "dropped packet byte length, count"
attr unit bytes
scalar Net60.rte[5].queue[0] drop:sum 0
attr interpolationmode none
attr title "dropped packet byte length, sum"
attr unit bytes
scalar Net60.rte[5].queue[1] rxBytes:count 3
attr interpolationmode none
attr title "received packet byte length, count"
attr unit bytes
scalar Net60.rte[5].queue[1] rxBytes:sum 98304
attr interpolationmode none
attr title "received packet byte length, sum"
attr unit bytes
statistic Net60.rte[5].queue[1] rxBytes:histogram
field count 3
field mean 32768
field stddev 0
field min 32768
field max 32768
field sum 98304
field sqrsum 3221225472
attr interpolationmode none
attr title "received packet byte length, histogram"
attr unit bytes
bin	-inf	0
bin	32767	0
bin	32768	3
bin	32769	0
scalar Net60.rte[5].queue[1] txBytes:count 0
attr interpolationmode none
attr title "transmitting packet byte length, count"
attr unit bytes
scalar Net60.rte[5].queue[1] txBytes:sum 0
attr interpolationmode none
attr title "transmitting packet byte length, sum"
attr unit bytes
statistic Net60.rte[5].queue[1] txBytes:histogram
field count 0
field mean nan
field stddev nan
field min nan
field max nan
field sum 0
field sqrsum 0
attr interpolationmode none
attr title "transmitting packet byte length, histogram"
attr unit bytes
bin	-inf	0
bin	0	0
bin	1	0
scalar Net60.rte[5].queue[1] busy:timeavg 0
attr interpolationmode sample-hold
attr title "server busy state, timeavg"
scalar Net60.rte[5].queue[1] qlen:timeavg 0
attr interpolationmode sample-hold
attr title "queue length, timeavg"
scalar Net60.rte[5].queue[1] qlen:max 0
attr interpolationmode sample-hold
attr title "queue length, max"
scalar Net60.rte[5].queue[1] drop:count 0
attr interpolationmode none
attr title "dropped packet byte length, count"
attr unit bytes
scalar Net60.rte[5].queue[1] drop:sum 0
attr interpolationmode none
attr title "dropped packet byte length, sum"
attr unit bytes
scalar Net60.rte[5].queue[2] rxBytes:count 38
attr interpolationmode none
attr title "received packet byte length, count"
attr unit bytes
scalar Net60.rte[5].queue[2] rxBytes:sum 1245184
attr interpolationmode none
attr title "received packet byte length, sum"
attr unit bytes
statistic Net60.rte[5].queue[2] rxBytes:histogram
field count 38
field mean 32768
field stddev 0
field min 32768
field max 32768
field sum 1245184
field sqrsum 40802189312
attr interpolationmode none
attr title "received packet byte length, histogram"
attr unit bytes
bin	-inf	0
bin	32767	0
bin	32768	38
bin	32769	0
scalar Net60.rte[5].queue[2] txBytes:count 14
attr interpolationmode none
attr title "transmitting packet byte length, count"
attr unit bytes
scalar Net60.rte[5].queue[2] txBytes:sum 458752
attr interpolationmode none
attr title "transmitting packet byte length, sum"
attr unit bytes
statistic Net60.rte[5].queue[2] txBytes:histogram
field count 14
field mean 32768
field stddev 0
field min 32768
field max 32768
field sum 458752
field sqrsum 15032385536
attr interpolationmode none
attr title "transmitting packet byte length, histogram"
attr unit bytes
bin	-inf	0
bin	32767	0
bin	32768	14
bin	32769	0
scalar Net60.rte[5].queue[2] busy:timeavg 0.27868131237738
attr interpolationmode sample-hold
attr title "server busy state, timeavg"
scalar Net60.rte[5].queue[2] qlen:timeavg 0.046007966723319
attr interpolationmode sample-hold
attr title "queue length, timeavg"
scalar Net60.rte[5].queue[2] qlen:max 1
attr interpolationmode sample-hold
attr title "queue length, max"
scalar Net60.rte[5].queue[2] drop:count 0
attr interpolationmode none
attr title "dropped packet byte length, count"
attr unit bytes
scalar Net60.rte[5].queue[2] drop:sum 0
attr interpolationmode none
attr title "dropped packet byte length, sum"
attr unit bytes
scalar Net60.rte[6].app hopCount:mean nan
attr interpolationmode none
attr title "hop count of arrived packets, mean"
scalar Net60.rte[6].app hopCount:max nan
attr interpolationmode none
attr title "hop count of arrived packets, max"
scalar Net60.rte[6].app endToEndDelay:mean nan
attr interpolationmode none
attr title "end-to-end delay of arrived packets, mean"
attr unit s
scalar Net60.rte[6].app endToEndDelay:max nan
attr interpolationmode none
attr title "end-to-end delay of arrived packets, max"
attr unit s
statistic Net60.rte[6].routing outputIf:histogram
field count 4
field mean 0
field stddev 0
field min 0
field max 0
field sum 0
field sqrsum 0
attr interpolationmode none
attr title "output interface for each routed packet, histogram"
bin	-inf	0
bin	-0.5	0
bin	-0.48	0
bin	-0.46	0
bin	-0.44	0
bin	-0.42	0
bin	-0.4	0
bin	-0.38	0
bin	-0.36	0
bin	-0.34	0
bin	-0.32	0
bin	-0.3	0
bin	-0.28	0
bin	-0.26	0
bin	-0.24	0
bin	-0.22	0
bin	-0.2	0
bin	-0.18	0
bin	-0.16	0
bin	-0.14	0
bin	-0.12	0
bin	-0.1	0
bin	-0.08	0
bin	-0.06	0
bin	-0.04	0
bin	-0.02	0
bin	0	4
bin	0.02	0
bin	0.04	0
bin	0.06	0
bin	0.08	0
bin	0.1	0
bin	0.12	0
bin	0.14	0
bin	0.16	0
bin	0.18	0
bin	0.2	0
bin	0.22	0
bin	0.24	0
bin	0.26	0
bin	0.28	0
bin	0.3	0
bin	0.32	0
bin	0.34	0
bin	0.36	0
bin	0.38	0
bin	0.4	0
bin	0.42	0
bin	0.44	0
bin	0.46	0
bin	0.48	0
bin	0.5	0
scalar Net60.rte[6].routing drop:count 0
attr interpolationmode none
attr title "dropped packet byte length, count"
attr unit bytes
scalar Net60.rte[6].routing drop:sum 0
attr interpolationmode none
attr title "dropped packet byte length, sum"
attr unit bytes
scalar Net60.rte[6].queue[0] rxBytes:count 0
attr interpolationmode none
attr title "received packet byte length, count"
attr unit bytes
scalar Net60.rte[6].queue[0] rxBytes:sum 0
attr interpolationmode none
attr title "received packet byte length, sum"
attr unit bytes
statistic Net60.rte[6].queue[0] rxBytes:histogram
field count 0
field mean nan
field stddev nan
field min nan
field max nan
field sum 0
field sqrsum 0
attr interpolationmode none
attr title "received packet byte length, histogram"
attr unit bytes
bin	-inf	0
bin	0	0
bin	1	0
scalar Net60.rte[6].queue[0] txBytes:count 4
attr interpolationmode none
attr title "transmitting packet byte length, count"
attr unit bytes
scalar Net60.rte[6].queue[0] txBytes:sum 131072
attr interpolationmode none
attr title "transmitting packet byte length, sum"
attr unit bytes
statistic Net60.rte[6].queue[0] txBytes:histogram
field count 4
field mean 32768
field stddev 0
field min 32768
field max 32768
field sum 131072
field sqrsum 4294967296
attr interpolationmode none
attr title "transmitting packet byte length, histogram"
attr unit bytes
bin	-inf	0
bin	32767	0
bin	32768	4
bin	32769	0
scalar Net60.rte[6].queue[0] busy:timeavg 0.079623232107822
attr interpolationmode sample-hold
attr title "server busy state, timeavg"
scalar Net60.rte[6].queue[0] qlen:timeavg 0
attr interpolationmode sample-hold
attr title "queue length, timeavg"
scalar Net60.rte[6].queue[0] qlen:max 0
attr interpolationmode sample-hold
attr title "queue length, max"
scalar Net60.rte[6].queue[0] drop:count 0
attr interpolationmode none
attr title "dropped packet byte length, count"
attr unit bytes
scalar Net60.rte[6].queue[0] drop:sum 0
attr interpolationmode none
attr title "dropped packet byte length, sum"
attr unit bytes
scalar Net60.rte[6].queue[1] rxBytes:count 0
attr interpolationmode none
attr title "received packet byte length, count"
attr unit bytes
scalar Net60.rte[6].queue[1] rxBytes:sum 0
attr interpolationmode none
attr title "received packet byte length, sum"
attr unit bytes
statistic Net60.rte[6].queue[1] rxBytes:histogram
field count 0
field mean nan
field stddev nan
field min nan
field max nan
field sum 0
field sqrsum 0
attr interpolationmode none
attr title "received packet byte length, histogram"
attr unit bytes
bin	-inf	0
bin	0	0
bin	1	0
scalar Net60.rte[6].queue[1] txBytes:count 0
attr interpolationmode none
attr title "transmitting packet byte length, count"
attr unit bytes
scalar Net60.rte[6].queue[1] txBytes:sum 0
attr interpolationmode none
attr title "transmitting packet byte length, sum"
attr unit bytes
statistic Net60.rte[6].queue[1] txBytes:histogram
field count 0
field mean nan
field stddev nan
field min nan
field max nan
field sum 0
field sqrsum 0
attr interpolationmode none
attr title "transmitting packet byte length, histogram"
attr unit bytes
bin	-inf	0
bin	0	0
bin	1	0
scalar Net60.rte[6].queue[1] busy:timeavg 0
attr interpolationmode sample-hold
attr title "server busy state, timeavg"
scalar Net60.rte[6].queue[1] qlen:timeavg 0
attr interpolationmode sample-hold
attr title "queue length, timeavg"
scalar Net60.rte[6].queue[1] qlen:max 0
attr interpolationmode sample-hold
attr title "queue length, max"
scalar Net60.rte[6].queue[1] drop:count 0
attr interpolationmode none
attr title "dropped packet byte length, count"
attr unit bytes
scalar Net60.rte[6].queue[1] drop:sum 0
attr interpolationmode none
attr title "dropped packet byte length, sum"
attr unit bytes
scalar Net60.rte[6].queue[2] rxBytes:count 1
attr interpolationmode none
attr title "received packet byte length, count"
attr unit bytes
scalar Net60.rte[6].queue[2] rxBytes:sum 32768
attr interpolationmode none
attr title "received packet byte length, sum"
attr unit bytes
statistic Net60.rte[6].queue[2] rxBytes:histogram
field count 1
field mean 32768
field stddev nan
field min 32768
field max 32768
field sum 32768
field sqrsum 1073741824
attr interpolationmode none
attr title "received packet byte length, histogram"
attr unit bytes
bin	-inf	0
bin	32767	0
bin	32768	1
bin	32769	0
scalar Net60.rte[6].queue[2] txBytes:count 0
attr interpolationmode none
attr title "transmitting packet byte length, count"
attr unit bytes
scalar Net60.rte[6].queue[2] txBytes:sum 0
attr interpolationmode none
attr title "transmitting packet byte length, sum"
attr unit bytes
statistic Net60.rte[6].queue[2] txBytes:histogram
field count 0
field mean nan
field stddev nan
field min nan
field max nan
field sum 0
field sqrsum 0
attr interpolationmode none
attr title "transmitting packet byte length, histogram"
attr unit bytes
bin	-inf	0
bin	0	0
bin	1	0
scalar Net60.rte[6].queue[2] busy:timeavg 0
attr interpolationmode sample-hold
attr title "server busy state, timeavg"
scalar Net60.rte[6].queue[2] qlen:timeavg 0
attr interpolationmode sample-hold
attr title "queue length, timeavg"
scalar Net60.rte[6].queue[2] qlen:max 0
attr interpolationmode sample-hold
attr title "queue length, max"
scalar Net60.rte[6].queue[2] drop:count 0
attr interpolationmode none
attr title "dropped packet byte length, count"
attr unit bytes
scalar Net60.rte[6].queue[2] drop:sum 0
attr interpolationmode none
attr title "dropped packet byte length, sum"
attr unit bytes
scalar Net60.rte[7].app hopCount:mean nan
attr interpolationmode none
attr title "hop count of arrived packets, mean"
scalar Net60.rte[7].app hopCount:max nan
attr interpolationmode none
attr title "hop count of arrived packets, max"
scalar Net60.rte[7].app endToEndDelay:mean nan
attr interpolationmode none
attr title "end-to-end delay of arrived packets, mean"
attr unit s
scalar Net60.rte[7].app endToEndDelay:max nan
attr interpolationmode none
attr title "end-to-end delay of arrived packets, max"
attr unit s
statistic Net60.rte[7].routing outputIf:histogram
field count 17
field mean 0
field stddev 0
field min 0
field max 0
field sum 0
field sqrsum 0
attr interpolationmode none
attr title "output interface for each routed packet, histogram"
bin	-inf	0
bin	-0.5	0
bin	-0.48	0
bin	-0.46	0
bin	-0.44	0
bin	-0.42	0
bin	-0.4	0
bin	-0.38	0
bin	-0.36	0
bin	-0.34	0
bin	-0.32	0
bin	-0.3	0
bin	-0.28	0
bin	-0.26	0
bin	-0.24	0
bin	-0.22	0
bin	-0.2	0
bin	-0.18	0
bin	-0.16	0
bin	-0.14	0
bin	-0.12	0
bin	-0.1	0
bin	-0.08	0
bin	-0.06	0
bin	-0.04	0
bin	-0.02	0
bin	0	17
bin	0.02	0
bin	0.04	0
bin	0.06	0
bin	0.08	0
bin	0.1	0
bin	0.12	0
bin	0.14	0
bin	0.16	0
bin	0.18	0
bin	0.2	0
bin	0.22	0
bin	0.24	0
bin	0.26	0
bin	0.28	0
bin	0.3	0
bin	0.32	0
bin	0.34	0
bin	0.36	0
bin	0.38	0
bin	0.4	0
bin	0.42	0
bin	0.44	0
bin	0.46	0
bin	0.48	0
bin	0.5	0
scalar Net60.rte[7].routing drop:count 0
attr interpolationmode none
attr title "dropped packet byte length, count"
attr unit bytes
scalar Net60.rte[7].routing drop:sum 0
attr interpolationmode none
attr title "dropped packet byte length, sum"
attr unit bytes
scalar Net60.rte[7].queue[0] rxBytes:count 0
attr interpolationmode none
attr title "received packet byte length, count"
attr unit bytes
scalar Net60.rte[7].queue[0] rxBytes:sum 0
attr interpolationmode none
attr title "received packet byte length, sum"
attr unit bytes
statistic Net60.rte[7].queue[0] rxBytes:histogram
field count 0
field mean nan
field stddev nan
field min nan
field max nan
field sum 0
field sqrsum 0
attr interpolationmode none
attr title "received packet byte length, histogram"
attr unit bytes
bin	-inf	0
bin	0	0
bin	1	0
scalar Net60.rte[7].queue[0] txBytes:count 17
attr interpolationmode none
attr title "transmitting packet byte length, count"
attr unit bytes
scalar Net60.rte[7].queue[0] txBytes:sum 557056
attr interpolationmode none
attr title "transmitting packet byte length, sum"
attr unit bytes
statistic Net60.rte[7].queue[0] txBytes:histogram
field count 17
field mean 32768
field stddev 0
field min 32768
field max 32768
field sum 557056
field sqrsum 18253611008
attr interpolationmode none
attr title "transmitting packet byte length, histogram"
attr unit bytes
bin	-inf	0
bin	32767	0
bin	32768	17
bin	32769	0
scalar Net60.rte[7].queue[0] busy:timeavg 0.33839873645824
attr interpolationmode sample-hold
attr title "server busy state, timeavg"
scalar Net60.rte[7].queue[0] qlen:timeavg 0.039732664615487
attr interpolationmode sample-hold
attr title "queue length, timeavg"
scalar Net60.rte[7].queue[0] qlen:max 1
attr interpolationmode sample-hold
attr title "queue length, max"
scalar Net60.rte[7].queue[0] drop:count 0
attr interpolationmode none
attr title "dropped packet byte length, count"
attr unit bytes
scalar Net60.rte[7].queue[0] drop:sum 0
attr interpolationmode none
attr title "dropped packet byte length, sum"
attr unit bytes
scalar Net60.rte[7].queue[1] rxBytes:count 0
attr interpolationmode none
attr title "received packet byte length, count"
attr unit bytes
scalar Net60.rte[7].queue[1] rxBytes:sum 0
attr interpolationmode none
attr title "received packet byte length, sum"
attr unit bytes
statistic Net60.rte[7].queue[1] rxBytes:histogram
field count 0
field mean nan
field stddev nan
field min nan
field max nan
field sum 0
field sqrsum 0
attr interpolationmode none
attr title "received packet byte length, histogram"
attr unit bytes
bin	-inf	0
bin	0	0
bin	1	0
scalar Net60.rte[7].queue[1] txBytes:count 0
attr interpolationmode none
attr title "transmitting packet byte length, count"
attr unit bytes
scalar Net60.rte[7].queue[1] txBytes:sum 0
attr interpolationmode none
attr title "transmitting packet byte length, sum"
attr unit bytes
statistic Net60.rte[7].queue[1] txBytes:histogram
field count 0
field mean nan
field stddev nan
field min nan
field max nan
field sum 0
field sqrsum 0
attr interpolationmode none
attr title "transmitting packet byte length, histogram"
attr unit bytes
bin	-inf	0
bin	0	0
bin	1	0
scalar Net60.rte[7].queue[1] busy:timeavg 0
attr interpolationmode sample-hold
attr title "server busy state, timeavg"
scalar Net60.rte[7].queue[1] qlen:timeavg 0
attr interpolationmode sample-hold
attr title "queue length, timeavg"
scalar Net60.rte[7].queue[1] qlen:max 0
attr interpolationmode sample-hold
attr title "queue length, max"
scalar Net60.rte[7].queue[1] drop:count 0
attr interpolationmode none
attr title "dropped packet byte length, count"
attr unit bytes
scalar Net60.rte[7].queue[1] drop:sum 0
attr interpolationmode none
attr title "dropped packet byte length, sum"
attr unit bytes
scalar Net60.rte[7].queue[2] rxBytes:count 4
attr interpolationmode none
attr title "received packet byte length, count"
attr unit bytes
scalar Net60.rte[7].queue[2] rxBytes:sum 131072
attr interpolationmode none
attr title "received packet byte length, sum"
attr unit bytes
statistic Net60.rte[7].queue[2] rxBytes:histogram
field count 4
field mean 32768
field stddev 0
field min 32768
field max 32768
field sum 131072
field sqrsum 4294967296
attr interpolationmode none
attr title "received packet byte length, histogram"
attr unit bytes
bin	-inf	0
bin	32767	0
bin	32768	4
bin	32769	0
scalar Net60.rte[7].queue[2] txBytes:count 0
attr interpolationmode none
attr title "transmitting packet byte length, count"
attr unit bytes
scalar Net60.rte[7].queue[2] txBytes:sum 0
attr interpolationmode none
attr title "transmitting packet byte length, sum"
attr unit bytes
statistic Net60.rte[7].queue[2] txBytes:histogram
field count 0
field mean nan
field stddev nan
field min nan
field max nan
field sum 0
field sqrsum 0
attr interpolationmode none
attr title "transmitting packet byte length, histogram"
attr unit bytes
bin	-inf	0
bin	0	0
bin	1	0
scalar Net60.rte[7].queue[2] busy:timeavg 0
attr interpolationmode sample-hold
attr title "server busy state, timeavg"
scalar Net60.rte[7].queue[2] qlen:timeavg 0
attr interpolationmode sample-hold
attr title "queue length, timeavg"
scalar Net60.rte[7].queue[2] qlen:max 0
attr interpolationmode sample-hold
attr title "queue length, max"
scalar Net60.rte[7].queue[2] drop:count 0
attr interpolationmode none
attr title "dropped packet byte length, count"
attr unit bytes
scalar Net60.rte[7].queue[2] drop:sum 0
attr interpolationmode none
attr title "dropped packet byte length, sum"
attr unit bytes
scalar Net60.rte[7].queue[3] rxBytes:count 10
attr interpolationmode none
attr title "received packet byte length, count"
attr unit bytes
scalar Net60.rte[7].queue[3] rxBytes:sum 327680
attr interpolationmode none
attr title "received packet byte length, sum"
attr unit bytes
statistic Net60.rte[7].queue[3] rxBytes:histogram
field count 10
field mean 32768
field stddev 0
field min 32768
field max 32768
field sum 327680
field sqrsum 10737418240
attr interpolationmode none
attr title "received packet byte length, histogram"
attr unit bytes
bin	-inf	0
bin	32767	0
bin	32768	10
bin	32769	0
scalar Net60.rte[7].queue[3] txBytes:count 0
attr interpolationmode none
attr title "transmitting packet byte length, count"
attr unit bytes
scalar Net60.rte[7].queue[3] txBytes:sum 0
attr interpolationmode none
attr title "transmitting packet byte length, sum"
attr unit bytes
statistic Net60.rte[7].queue[3] txBytes:histogram
field count 0
field mean nan
field stddev nan
field min nan
field max nan
field sum 0
field sqrsum 0
attr interpolationmode none
attr title "transmitting packet byte length, histogram"
attr unit bytes
bin	-inf	0
bin	0	0
bin	1	0
scalar Net60.rte[7].queue[3] busy:timeavg 0
attr interpolationmode sample-hold
attr title "server busy state, timeavg"
scalar Net60.rte[7].queue[3] qlen:timeavg 0
attr interpolationmode sample-hold
attr title "queue length, timeavg"
scalar Net60.rte[7].queue[3] qlen:max 0
attr interpolationmode sample-hold
attr title "queue length, max"
scalar Net60.rte[7].queue[3] drop:count 0
attr interpolationmode none
attr title "dropped packet byte length, count"
attr unit bytes
scalar Net60.rte[7].queue[3] drop:sum 0
attr interpolationmode none
attr title "dropped packet byte length, sum"
attr unit bytes
scalar Net60.rte[8].app hopCount:mean nan
attr interpolationmode none
attr title "hop count of arrived packets, mean"
scalar Net60.rte[8].app hopCount:max nan
attr interpolationmode none
attr title "hop count of arrived packets, max"
scalar Net60.rte[8].app endToEndDelay:mean nan
attr interpolationmode none
attr title "end-to-end delay of arrived packets, mean"
attr unit s
scalar Net60.rte[8].app endToEndDelay:max nan
attr interpolationmode none
attr title "end-to-end delay of arrived packets, max"
attr unit s
statistic Net60.rte[8].routing outputIf:histogram
field count 4
field mean 0
field stddev 0
field min 0
field max 0
field sum 0
field sqrsum 0
attr interpolationmode none
attr title "output interface for each routed packet, histogram"
bin	-inf	0
bin	-0.5	0
bin	-0.48	0
bin	-0.46	0
bin	-0.44	0
bin	-0.42	0
bin	-0.4	0
bin	-0.38	0
bin	-0.36	0
bin	-0.34	0
bin	-0.32	0
bin	-0.3	0
bin	-0.28	0
bin	-0.26	0
bin	-0.24	0
bin	-0.22	0
bin	-0.2	0
bin	-0.18	0
bin	-0.16	0
bin	-0.14	0
bin	-0.12	0
bin	-0.1	0
bin	-0.08	0
bin	-0.06	0
bin	-0.04	0
bin	-0.02	0
bin	0	4
bin	0.02	0
bin	0.04	0
bin	0.06	0
bin	0.08	0
bin	0.1	0
bin	0.12	0
bin	0.14	0
bin	0.16	0
bin	0.18	0
bin	0.2	0
bin	0.22	0
bin	0.24	0
bin	0.26	0
bin	0.28	0
bin	0.3	0
bin	0.32	0
bin	0.34	0
bin	0.36	0
bin	0.38	0
bin	0.4	0
bin	0.42	0
bin	0.44	0
bin	0.46	0
bin	0.48	0
bin	0.5	0
scalar Net60.rte[8].routing drop:count 0
attr interpolationmode none
attr title "dropped packet byte length, count"
attr unit bytes
scalar Net60.rte[8].routing drop:sum 0
attr interpolationmode none
attr title "dropped packet byte length, sum"
attr unit bytes
scalar Net60.rte[8].queue[0] rxBytes:count 0
attr interpolationmode none
attr title "received packet byte length, count"
attr unit bytes
scalar Net60.rte[8].queue[0] rxBytes:sum 0
attr interpolationmode none
attr title "received packet byte length, sum"
attr unit bytes
statistic Net60.rte[8].queue[0] rxBytes:histogram
field count 0
field mean nan
field stddev nan
field min nan
field max nan
field sum 0
field sqrsum 0
attr interpolationmode none
attr title "received packet byte length, histogram"
attr unit bytes
bin	-inf	0
bin	0	0
bin	1	0
scalar Net60.rte[8].queue[0] txBytes:count 4
attr interpolationmode none
attr title "transmitting packet byte length, count"
attr unit bytes
scalar Net60.rte[8].queue[0] txBytes:sum 131072
attr interpolationmode none
attr title "transmitting packet byte length, sum"
attr unit bytes
statistic Net60.rte[8].queue[0] txBytes:histogram
field count 4
field mean 32768
field stddev 0
field min 32768
field max 32768
field sum 131072
field sqrsum 4294967296
attr interpolationmode none
attr title "transmitting packet byte length, histogram"
attr unit bytes
bin	-inf	0
bin	32767	0
bin	32768	4
bin	32769	0
scalar Net60.rte[8].queue[0] busy:timeavg 0.079623232107822
attr interpolationmode sample-hold
attr title "server busy state, timeavg"
scalar Net60.rte[8].queue[0] qlen:timeavg 0
attr interpolationmode sample-hold
attr title "queue length, timeavg"
scalar Net60.rte[8].queue[0] qlen:max 0
attr interpolationmode sample-hold
attr title "queue length, max"
scalar Net60.rte[8].queue[0] drop:count 0
attr interpolationmode none
attr title "dropped packet byte length, count"
attr unit bytes
scalar Net60.rte[8].queue[0] drop:sum 0
attr interpolationmode none
attr title "dropped packet byte length, sum"
attr unit bytes
scalar Net60.rte[9].app hopCount:mean nan
attr interpolationmode none
attr title "hop count of arrived packets, mean"
scalar Net60.rte[9].app hopCount:max nan
attr interpolationmode none
attr title "hop count of arrived packets, max"
scalar Net60.rte[9].app endToEndDelay:mean nan
attr interpolationmode none
attr title "end-to-end delay of arrived packets, mean"
attr unit s
scalar Net60.rte[9].app endToEndDelay:max nan
attr interpolationmode none
attr title "end-to-end delay of arrived packets, max"
attr unit s
statistic Net60.rte[9].routing outputIf:histogram
field count 4
field mean 0.75
field stddev 0.5
field min 0
field max 1
field sum 3
field sqrsum 3
attr interpolationmode none
attr title "output interface for each routed packet, histogram"
bin	-inf	0
bin	0	1
bin	1	3
bin	2	0
scalar Net60.rte[9].routing drop:count 0
attr interpolationmode none
attr title "dropped packet byte length, count"
attr unit bytes
scalar Net60.rte[9].routing drop:sum 0
attr interpolationmode none
attr title "dropped packet byte length, sum"
attr unit bytes
scalar Net60.rte[9].queue[0] rxBytes:count 0
attr interpolationmode none
attr title "received packet byte length, count"
attr unit bytes
scalar Net60.rte[9].queue[0] rxBytes:sum 0
attr interpolationmode none
attr title "received packet byte length, sum"
attr unit bytes
statistic Net60.rte[9].queue[0] rxBytes:histogram
field count 0
field mean nan
field stddev nan
field min nan
field max nan
field sum 0
field sqrsum 0
attr interpolationmode none
attr title "received packet byte length, histogram"
attr unit bytes
bin	-inf	0
bin	0	0
bin	1	0
scalar Net60.rte[9].queue[0] txBytes:count 1
attr interpolationmode none
attr title "transmitting packet byte length, count"
attr unit bytes
scalar Net60.rte[9].queue[0] txBytes:sum 32768
attr interpolationmode none
attr title "transmitting packet byte length, sum"
attr unit bytes
statistic Net60.rte[9].queue[0] txBytes:histogram
field count 1
field mean 32768
field stddev nan
field min 32768
field max 32768
field sum 32768
field sqrsum 1073741824
attr interpolationmode none
attr title "transmitting packet byte length, histogram"
attr unit bytes
bin	-inf	0
bin	32767	0
bin	32768	1
bin	32769	0
scalar Net60.rte[9].queue[0] busy:timeavg 0.019905808026955
attr interpolationmode sample-hold
attr title "server busy state, timeavg"
scalar Net60.rte[9].queue[0] qlen:timeavg 0
attr interpolationmode sample-hold
attr title "queue length, timeavg"
scalar Net60.rte[9].queue[0] qlen:max 0
attr interpolationmode sample-hold
attr title "queue length, max"
scalar Net60.rte[9].queue[0] drop:count 0
attr interpolationmode none
attr title "dropped packet byte length, count"
attr unit bytes
scalar Net60.rte[9].queue[0] drop:sum 0
attr interpolationmode none
attr title "dropped packet byte length, sum"
attr unit bytes
scalar Net60.rte[9].queue[1] rxBytes:count 0
attr interpolationmode none
attr title "received packet byte length, count"
attr unit bytes
scalar Net60.rte[9].queue[1] rxBytes:sum 0
attr interpolationmode none
attr title "received packet byte length, sum"
attr unit bytes
statistic Net60.rte[9].queue[1] rxBytes:histogram
field count 0
field mean nan
field stddev nan
field min nan
field max nan
field sum 0
field sqrsum 0
attr interpolationmode none
attr title "received packet byte length, histogram"
attr unit bytes
bin	-inf	0
bin	0	0
bin	1	0
scalar Net60.rte[9].queue[1] txBytes:count 3
attr interpolationmode none
attr title "transmitting packet byte length, count"
attr unit bytes
scalar Net60.rte[9].queue[1] txBytes:sum 98304
attr interpolationmode none
attr title "transmitting packet byte length, sum"
attr unit bytes
statistic Net60.rte[9].queue[1] txBytes:histogram
field count 3
field mean 32768
field stddev 0
field min 32768
field max 32768
field sum 98304
field sqrsum 3221225472
attr interpolationmode none
attr title "transmitting packet byte length, histogram"
attr unit bytes
bin	-inf	0
bin	32767	0
bin	32768	3
bin	32769	0
scalar Net60.rte[9].queue[1] busy:timeavg 0.059717424080866
attr interpolationmode sample-hold
attr title "server busy state, timeavg"
scalar Net60.rte[9].queue[1] qlen:timeavg 0
attr interpolationmode sample-hold
attr title "queue length, timeavg"
scalar Net60.rte[9].queue[1] qlen:max 0
attr interpolationmode sample-hold
attr title "queue length, max"
scalar Net60.rte[9].queue[1] drop:count 0
attr interpolationmode none
attr title "dropped packet byte length, count"
attr unit bytes
scalar Net60.rte[9].queue[1] drop:sum 0
attr interpolationmode none
attr title "dropped packet byte length, sum"
attr unit bytes
scalar Net60.rte[10].app hopCount:mean nan
attr interpolationmode none
attr title "hop count of arrived packets, mean"
scalar Net60.rte[10].app hopCount:max nan
attr interpolationmode none
attr title "hop count of arrived packets, max"
scalar Net60.rte[10].app endToEndDelay:mean nan
attr interpolationmode none
attr title "end-to-end delay of arrived packets, mean"
attr unit s
scalar Net60.rte[10].app endToEndDelay:max nan
attr interpolationmode none
attr title "end-to-end delay of arrived packets, max"
attr unit s
statistic Net60.rte[10].routing outputIf:histogram
field count 66
field mean 0.57575757575758
field stddev 0.91248782601963
field min 0
field max 2
field sum 38
field sqrsum 76
attr interpolationmode none
attr title "output interface for each routed packet, histogram"
bin	-inf	0
bin	0	47
bin	1	0
bin	2	19
bin	3	0
scalar Net60.rte[10].routing drop:count 0
attr interpolationmode none
attr title "dropped packet byte length, count"
attr unit bytes
scalar Net60.rte[10].routing drop:sum 0
attr interpolationmode none
attr title "dropped packet byte length, sum"
attr unit bytes
scalar Net60.rte[10].queue[0] rxBytes:count 14
attr interpolationmode none
attr title "received packet byte length, count"
attr unit bytes
scalar Net60.rte[10].queue[0] rxBytes:sum 458752
attr interpolationmode none
attr title "received packet byte length, sum"
attr unit bytes
statistic Net60.rte[10].queue[0] rxBytes:histogram
field count 14
field mean 32768
field stddev 0
field min 32768
field max 32768
field sum 458752
field sqrsum 15032385536
attr interpolationmode none
attr title "received packet byte length, histogram"
attr unit bytes
bin	-inf	0
bin	32767	0
bin	32768	14
bin	32769	0
scalar Net60.rte[10].queue[0] txBytes:count 40
attr interpolationmode none
attr title "transmitting packet byte length, count"
attr unit bytes
scalar Net60.rte[10].queue[0] txBytes:sum 1310720
attr interpolationmode none
attr title "transmitting packet byte length, sum"
attr unit bytes
statistic Net60.rte[10].queue[0] txBytes:histogram
field count 40
field mean 32768
field stddev 0
field min 32768
field max 32768
field sum 1310720
field sqrsum 42949672960
attr interpolationmode none
attr title "transmitting packet byte length, histogram"
attr unit bytes
bin	-inf	0
bin	32767	0
bin	32768	40
bin	32769	0
scalar Net60.rte[10].queue[0] busy:timeavg 0.78042790598316
attr interpolationmode sample-hold
attr title "server busy state, timeavg"
scalar Net60.rte[10].queue[0] qlen:timeavg 2.5141364208947
attr interpolationmode sample-hold
attr title "queue length, timeavg"
scalar Net60.rte[10].queue[0] qlen:max 8
attr interpolationmode sample-hold
attr title "queue length, max"
scalar Net60.rte[10].queue[0] drop:count 0
attr interpolationmode none
attr title "dropped packet byte length, count"
attr unit bytes
scalar Net60.rte[10].queue[0] drop:sum 0
attr interpolationmode none
attr title "dropped packet byte length, sum"
attr unit bytes
scalar Net60.rte[10].queue[1] rxBytes:count 10
attr interpolationmode none
attr title "received packet byte length, count"
attr unit bytes
scalar Net60.rte[10].queue[1] rxBytes:sum 327680
attr interpolationmode none
attr title "received packet byte length, sum"
attr unit bytes
statistic Net60.rte[10].queue[1] rxBytes:histogram
field count 10
field mean 32768
field stddev 0
field min 32768
field max 32768
field sum 327680
field sqrsum 10737418240
attr interpolationmode none
attr title "received packet byte length, histogram"
attr unit bytes
bin	-inf	0
bin	32767	0
bin	32768	10
bin	32769	0
scalar Net60.rte[10].queue[1] txBytes:count 0
attr interpolationmode none
attr title "transmitting packet byte length, count"
attr unit bytes
scalar Net60.rte[10].queue[1] txBytes:sum 0
attr interpolationmode none
attr title "transmitting packet byte length, sum"
attr unit bytes
statistic Net60.rte[10].queue[1] txBytes:histogram
field count 0
field mean nan
field stddev nan
field min nan
field max nan
field sum 0
field sqrsum 0
attr interpolationmode none
attr title "transmitting packet byte length, histogram"
attr unit bytes
bin	-inf	0
bin	0	0
bin	1	0
scalar Net60.rte[10].queue[1] busy:timeavg 0
attr interpolationmode sample-hold
attr title "server busy state, timeavg"
scalar Net60.rte[10].queue[1] qlen:timeavg 0
attr interpolationmode sample-hold
attr title "queue length, timeavg"
scalar Net60.rte[10].queue[1] qlen:max 0
attr interpolationmode sample-hold
attr title "queue length, max"
scalar Net60.rte[10].queue[1] drop:count 0
attr interpolationmode none
attr title "dropped packet byte length, count"
attr unit bytes
scalar Net60.rte[10].queue[1] drop:sum 0
attr interpolationmode none
attr title "dropped packet byte length, sum"
attr unit bytes
scalar Net60.rte[10].queue[2] rxBytes:count 38
attr interpolationmode none
attr title "received packet byte length, count"
attr unit bytes
scalar Net60.rte[10].queue[2] rxBytes:sum 1245184
attr interpolationmode none
attr title "received packet byte length, sum"
attr unit bytes
statistic Net60.rte[10].queue[2] rxBytes:histogram
field count 38
field mean 32768
field stddev 0
field min 32768
field max 32768
field sum 1245184
field sqrsum 40802189312
attr interpolationmode none
attr title "received packet byte length, histogram"
attr unit bytes
bin	-inf	0
bin	32767	0
bin	32768	38
bin	32769	0
scalar Net60.rte[10].queue[2] txBytes:count 19
attr interpolationmode none
attr title "transmitting packet byte length, count"
attr unit bytes
scalar Net60.rte[10].queue[2] txBytes:sum 622592
attr interpolationmode none
attr title "transmitting packet byte length, sum"
attr unit bytes
statistic Net60.rte[10].queue[2] txBytes:histogram
field count 19
field mean 32768
field stddev 0
field min 32768
field max 32768
field sum 622592
field sqrsum 20401094656
attr interpolationmode none
attr title "transmitting packet byte length, histogram"
attr unit bytes
bin	-inf	0
bin	32767	0
bin	32768	19
bin	32769	0
scalar Net60.rte[10].queue[2] busy:timeavg 0.37821035251215
attr interpolationmode sample-hold
attr title "server busy state, timeavg"
scalar Net60.rte[10].queue[2] qlen:timeavg 0.080066576757284
attr interpolationmode sample-hold
attr title "queue length, timeavg"
scalar Net60.rte[10].queue[2] qlen:max 1
attr interpolationmode sample-hold
attr title "queue length, max"
scalar Net60.rte[10].queue[2] drop:count 0
attr interpolationmode none
attr title "dropped packet byte length, count"
attr unit bytes
scalar Net60.rte[10].queue[2] drop:sum 0
attr interpolationmode none
attr title "dropped packet byte length, sum"
attr unit bytes
scalar Net60.rte[11].app hopCount:mean nan
attr interpolationmode none
attr title "hop count of arrived packets, mean"
scalar Net60.rte[11].app hopCount:max nan
attr interpolationmode none
attr title "hop count of arrived packets, max"
scalar Net60.rte[11].app endToEndDelay:mean nan
attr interpolationmode none
attr title "end-to-end delay of arrived packets, mean"
attr unit s
scalar Net60.rte[11].app endToEndDelay:max nan
attr interpolationmode none
attr title "end-to-end delay of arrived packets, max"
attr unit s
statistic Net60.rte[11].routing outputIf:histogram
field count 11
field mean 1
field stddev 0
field min 1
field max 1
field sum 11
field sqrsum 11
attr interpolationmode none
attr title "output interface for each routed packet, histogram"
bin	-inf	0
bin	0	0
bin	1	11
bin	2	0
scalar Net60.rte[11].routing drop:count 0
attr interpolationmode none
attr title "dropped packet byte length, count"
attr unit bytes
scalar Net60.rte[11].routing drop:sum 0
attr interpolationmode none
attr title "dropped packet byte length, sum"
attr unit bytes
scalar Net60.rte[11].queue[0] rxBytes:count 3
attr interpolationmode none
attr title "received packet byte length, count"
attr unit bytes
scalar Net60.rte[11].queue[0] rxBytes:sum 98304
attr interpolationmode none
attr title "received packet byte length, sum"
attr unit bytes
statistic Net60.rte[11].queue[0] rxBytes:histogram
field count 3
field mean 32768
field stddev 0
field min 32768
field max 32768
field sum 98304
field sqrsum 3221225472
attr interpolationmode none
attr title "received packet byte length, histogram"
attr unit bytes
bin	-inf	0
bin	32767	0
bin	32768	3
bin	32769	0
scalar Net60.rte[11].queue[0] txBytes:count 0
attr interpolationmode none
attr title "transmitting packet byte length, count"
attr unit bytes
scalar Net60.rte[11].queue[0] txBytes:sum 0
attr interpolationmode none
attr title "transmitting packet byte length, sum"
attr unit bytes
statistic Net60.rte[11].queue[0] txBytes:histogram
field count 0
field mean nan
field stddev nan
field min nan
field max nan
field sum 0
field sqrsum 0
attr interpolationmode none
attr title "transmitting packet byte length, histogram"
attr unit bytes
bin	-inf	0
bin	0	0
bin	1	0
scalar Net60.rte[11].queue[0] busy:timeavg 0
attr interpolationmode sample-hold
attr title "server busy state, timeavg"
scalar Net60.rte[11].queue[0] qlen:timeavg 0
attr interpolationmode sample-hold
attr title "queue length, timeavg"
scalar Net60.rte[11].queue[0] qlen:max 0
attr interpolationmode sample-hold
attr title "queue length, max"
scalar Net60.rte[11].queue[0] drop:count 0
attr interpolationmode none
attr title "dropped packet byte length, count"
attr unit bytes
scalar Net60.rte[11].queue[0] drop:sum 0
attr interpolationmode none
attr title "dropped packet byte length, sum"
attr unit bytes
scalar Net60.rte[11].queue[1] rxBytes:count 0
attr interpolationmode none
attr title "received packet byte length, count"
attr unit bytes
scalar Net60.rte[11].queue[1] rxBytes:sum 0
attr interpolationmode none
attr title "received packet byte length, sum"
attr unit bytes
statistic Net60.rte[11].queue[1] rxBytes:histogram
field count 0
field mean nan
field stddev nan
field min nan
field max nan
field sum 0
field sqrsum 0
attr interpolationmode none
attr title "received packet byte length, histogram"
attr unit bytes
bin	-inf	0
bin	0	0
bin	1	0
scalar Net60.rte[11].queue[1] txBytes:count 11
attr interpolationmode none
attr title "transmitting packet byte length, count"
attr unit bytes
scalar Net60.rte[11].queue[1] txBytes:sum 360448
attr interpolationmode none
attr title "transmitting packet byte length, sum"
attr unit bytes
statistic Net60.rte[11].queue[1] txBytes:histogram
field count 11
field mean 32768
field stddev 0
field min 32768
field max 32768
field sum 360448
field sqrsum 11811160064
attr interpolationmode none
attr title "transmitting packet byte length, histogram"
attr unit bytes
bin	-inf	0
bin	32767	0
bin	32768	11
bin	32769	0
scalar Net60.rte[11].queue[1] busy:timeavg 0.20155824342479
attr interpolationmode sample-hold
attr title "server busy state, timeavg"
scalar Net60.rte[11].queue[1] qlen:timeavg 0
attr interpolationmode sample-hold
attr title "queue length, timeavg"
scalar Net60.rte[11].queue[1] qlen:max 0
attr interpolationmode sample-hold
attr title "queue length, max"
scalar Net60.rte[11].queue[1] drop:count 0
attr interpolationmode none
attr title "dropped packet byte length, count"
attr unit bytes
scalar Net60.rte[11].queue[1] drop:sum 0
attr interpolationmode none
attr title "dropped packet byte length, sum"
attr unit bytes
scalar Net60.rte[11].queue[2] rxBytes:count 1
attr interpolationmode none
attr title "received packet byte length, count"
attr unit bytes
scalar Net60.rte[11].queue[2] rxBytes:sum 32768
attr interpolationmode none
attr title "received packet byte length, sum"
attr unit bytes
statistic Net60.rte[11].queue[2] rxBytes:histogram
field count 1
field mean 32768
field stddev nan
field min 32768
field max 32768
field sum 32768
field sqrsum 1073741824
attr interpolationmode none
attr title "received packet byte length, histogram"
attr unit bytes
bin	-inf	0
bin	32767	0
bin	32768	1
bin	32769	0
scalar Net60.rte[11].queue[2] txBytes:count 0
attr interpolationmode none
attr title "transmitting packet byte length, count"
attr unit bytes
scalar Net60.rte[11].queue[2] txBytes:sum 0
attr interpolationmode none
attr title "transmitting packet byte length, sum"
attr unit bytes
statistic Net60.rte[11].queue[2] txBytes:histogram
field count 0
field mean nan
field stddev nan
field min nan
field max nan
field sum 0
field sqrsum 0
attr interpolationmode none
attr title "transmitting packet byte length, histogram"
attr unit bytes
bin	-inf	0
bin	0	0
bin	1	0
scalar Net60.rte[11].queue[2] busy:timeavg 0
attr interpolationmode sample-hold
attr title "server busy state, timeavg"
scalar Net60.rte[11].queue[2] qlen:timeavg 0
attr interpolationmode sample-hold
attr title "queue length, timeavg"
scalar Net60.rte[11].queue[2] qlen:max 0
attr interpolationmode sample-hold
attr title "queue length, max"
scalar Net60.rte[11].queue[2] drop:count 0
attr interpolationmode none
attr title "dropped packet byte length, count"
attr unit bytes
scalar Net60.rte[11].queue[2] drop:sum 0
attr interpolationmode none
attr title "dropped packet byte length, sum"
attr unit bytes
scalar Net60.rte[11].queue[3] rxBytes:count 3
attr interpolationmode none
attr title "received packet byte length, count"
attr unit bytes
scalar Net60.rte[11].queue[3] rxBytes:sum 98304
attr interpolationmode none
attr title "received packet byte length, sum"
attr unit bytes
statistic Net60.rte[11].queue[3] rxBytes:histogram
field count 3
field mean 32768
field stddev 0
field min 32768
field max 32768
field sum 98304
field sqrsum 3221225472
attr interpolationmode none
attr title "received packet byte length, histogram"
attr unit bytes
bin	-inf	0
bin	32767	0
bin	32768	3
bin	32769	0
scalar Net60.rte[11].queue[3] txBytes:count 0
attr interpolationmode none
attr title "transmitting packet byte length, count"
attr unit bytes
scalar Net60.rte[11].queue[3] txBytes:sum 0
attr interpolationmode none
attr title "transmitting packet byte length, sum"
attr unit bytes
statistic Net60.rte[11].queue[3] txBytes:histogram
field count 0
field mean nan
field stddev nan
field min nan
field max nan
field sum 0
field sqrsum 0
attr interpolationmode none
attr title "transmitting packet byte length, histogram"
attr unit bytes
bin	-inf	0
bin	0	0
bin	1	0
scalar Net60.rte[11].queue[3] busy:timeavg 0
attr interpolationmode sample-hold
attr title "server busy state, timeavg"
scalar Net60.rte[11].queue[3] qlen:timeavg 0
attr interpolationmode sample-hold
attr title "queue length, timeavg"
scalar Net60.rte[11].queue[3] qlen:max 0
attr interpolationmode sample-hold
attr title "queue length, max"
scalar Net60.rte[11].queue[3] drop:count 0
attr interpolationmode none
attr title "dropped packet byte length, count"
attr unit bytes
scalar Net60.rte[11].queue[3] drop:sum 0
attr interpolationmode none
attr title "dropped packet byte length, sum"
attr unit bytes
scalar Net60.rte[12].app hopCount:mean nan
attr interpolationmode none
attr title "hop count of arrived packets, mean"
scalar Net60.rte[12].app hopCount:max nan
attr interpolationmode none
attr title "hop count of arrived packets, max"
scalar Net60.rte[12].app endToEndDelay:mean nan
attr interpolationmode none
attr title "end-to-end delay of arrived packets, mean"
attr unit s
scalar Net60.rte[12].app endToEndDelay:max nan
attr interpolationmode none
attr title "end-to-end delay of arrived packets, max"
attr unit s
statistic Net60.rte[12].routing outputIf:histogram
field count 11
field mean 0.090909090909091
field stddev 0.30151134457776
field min 0
field max 1
field sum 1
field sqrsum 1
attr interpolationmode none
attr title "output interface for each routed packet, histogram"
bin	-inf	0
bin	0	10
bin	1	1
bin	2	0
scalar Net60.rte[12].routing drop:count 0
attr interpolationmode none
attr title "dropped packet byte length, count"
attr unit bytes
scalar Net60.rte[12].routing drop:sum 0
attr interpolationmode none
attr title "dropped packet byte length, sum"
attr unit bytes
scalar Net60.rte[12].queue[0] rxBytes:count 0
attr interpolationmode none
attr title "received packet byte length, count"
attr unit bytes
scalar Net60.rte[12].queue[0] rxBytes:sum 0
attr interpolationmode none
attr title "received packet byte length, sum"
attr unit bytes
statistic Net60.rte[12].queue[0] rxBytes:histogram
field count 0
field mean nan
field stddev nan
field min nan
field max nan
field sum 0
field sqrsum 0
attr interpolationmode none
attr title "received packet byte length, histogram"
attr unit bytes
bin	-inf	0
bin	0	0
bin	1	0
scalar Net60.rte[12].queue[0] txBytes:count 10
attr interpolationmode none
attr title "transmitting packet byte length, count"
attr unit bytes
scalar Net60.rte[12].queue[0] txBytes:sum 327680
attr interpolationmode none
attr title "transmitting packet byte length, sum"
attr unit bytes
statistic Net60.rte[12].queue[0] txBytes:histogram
field count 10
field mean 32768
field stddev 0
field min 32768
field max 32768
field sum 327680
field sqrsum 10737418240
attr interpolationmode none
attr title "transmitting packet byte length, histogram"
attr unit bytes
bin	-inf	0
bin	32767	0
bin	32768	10
bin	32769	0
scalar Net60.rte[12].queue[0] busy:timeavg 0.19905808026955
attr interpolationmode sample-hold
attr title "server busy state, timeavg"
scalar Net60.rte[12].queue[0] qlen:timeavg 0.028715060252419
attr interpolationmode sample-hold
attr title "queue length, timeavg"
scalar Net60.rte[12].queue[0] qlen:max 1
attr interpolationmode sample-hold
attr title "queue length, max"
scalar Net60.rte[12].queue[0] drop:count 0
attr interpolationmode none
attr title "dropped packet byte length, count"
attr unit bytes
scalar Net60.rte[12].queue[0] drop:sum 0
attr interpolationmode none
attr title "dropped packet byte length, sum"
attr unit bytes
scalar Net60.rte[12].queue[1] rxBytes:count 0
attr interpolationmode none
attr title "received packet byte length, count"
attr unit bytes
scalar Net60.rte[12].queue[1] rxBytes:sum 0
attr interpolationmode none
attr title "received packet byte length, sum"
attr unit bytes
statistic Net60.rte[12].queue[1] rxBytes:histogram
field count 0
field mean nan
field stddev nan
field min nan
field max nan
field sum 0
field sqrsum 0
attr interpolationmode none
attr title "received packet byte length, histogram"
attr unit bytes
bin	-inf	0
bin	0	0
bin	1	0
scalar Net60.rte[12].queue[1] txBytes:count 1
attr interpolationmode none
attr title "transmitting packet byte length, count"
attr unit bytes
scalar Net60.rte[12].queue[1] txBytes:sum 32768
attr interpolationmode none
attr title "transmitting packet byte length, sum"
attr unit bytes
statistic Net60.rte[12].queue[1] txBytes:histogram
field count 1
field mean 32768
field stddev nan
field min 32768
field max 32768
field sum 32768
field sqrsum 1073741824
attr interpolationmode none
attr title "transmitting packet byte length, histogram"
attr unit bytes
bin	-inf	0
bin	32767	0
bin	32768	1
bin	32769	0
scalar Net60.rte[12].queue[1] busy:timeavg 0.019905808026955
attr interpolationmode sample-hold
attr title "server busy state, timeavg"
scalar Net60.rte[12].queue[1] qlen:timeavg 0
attr interpolationmode sample-hold
attr title "queue length, timeavg"
scalar Net60.rte[12].queue[1] qlen:max 0
attr interpolationmode sample-hold
attr title "queue length, max"
scalar Net60.rte[12].queue[1] drop:count 0
attr interpolationmode none
attr title "dropped packet byte length, count"
attr unit bytes
scalar Net60.rte[12].queue[1] drop:sum 0
attr interpolationmode none
attr title "dropped packet byte length, sum"
attr unit bytes
scalar Net60.rte[12].queue[2] rxBytes:count 8
attr interpolationmode none
attr title "received packet byte length, count"
attr unit bytes
scalar Net60.rte[12].queue[2] rxBytes:sum 262144
attr interpolationmode none
attr title "received packet byte length, sum"
attr unit bytes
statistic Net60.rte[12].queue[2] rxBytes:histogram
field count 8
field mean 32768
field stddev 0
field min 32768
field max 32768
field sum 262144
field sqrsum 8589934592
attr interpolationmode none
attr title "received packet byte length, histogram"
attr unit bytes
bin	-inf	0
bin	32767	0
bin	32768	8
bin	32769	0
scalar Net60.rte[12].queue[2] txBytes:count 0
attr interpolationmode none
attr title "transmitting packet byte length, count"
attr unit bytes
scalar Net60.rte[12].queue[2] txBytes:sum 0
attr interpolationmode none
attr title "transmitting packet byte length, sum"
attr unit bytes
statistic Net60.rte[12].queue[2] txBytes:histogram
field count 0
field mean nan
field stddev nan
field min nan
field max nan
field sum 0
field sqrsum 0
attr interpolationmode none
attr title "transmitting packet byte length, histogram"
attr unit bytes
bin	-inf	0
bin	0	0
bin	1	0
scalar Net60.rte[12].queue[2] busy:timeavg 0
attr interpolationmode sample-hold
attr title "server busy state, timeavg"
scalar Net60.rte[12].queue[2] qlen:timeavg 0
attr interpolationmode sample-hold
attr title "queue length, timeavg"
scalar Net60.rte[12].queue[2] qlen:max 0
attr interpolationmode sample-hold
attr title "queue length, max"
scalar Net60.rte[12].queue[2] drop:count 0
attr interpolationmode none
attr title "dropped packet byte length, count"
attr unit bytes
scalar Net60.rte[12].queue[2] drop:sum 0
attr interpolationmode none
attr title "dropped packet byte length, sum"
attr unit bytes
scalar Net60.rte[13].app hopCount:mean nan
attr interpolationmode none
attr title "hop count of arrived packets, mean"
scalar Net60.rte[13].app hopCount:max nan
attr interpolationmode none
attr title "hop count of arrived packets, max"
scalar Net60.rte[13].app endToEndDelay:mean nan
attr interpolationmode none
attr title "end-to-end delay of arrived packets, mean"
attr unit s
scalar Net60.rte[13].app endToEndDelay:max nan
attr interpolationmode none
attr title "end-to-end delay of arrived packets, max"
attr unit s
statistic Net60.rte[13].routing outputIf:histogram
field count 63
field mean 0.34920634920635
field stddev 0.48054841516113
field min 0
field max 1
field sum 22
field sqrsum 22
attr interpolationmode none
attr title "output interface for each routed packet, histogram"
bin	-inf	0
bin	0	41
bin	1	22
bin	2	0
scalar Net60.rte[13].routing drop:count 0
attr interpolationmode none
attr title "dropped packet byte length, count"
attr unit bytes
scalar Net60.rte[13].routing drop:sum 0
[...]
field min nan
field max nan
field sum 0
field sqrsum 0
attr interpolationmode none
attr title "transmitting packet byte length, histogram"
attr unit bytes
bin	-inf	0
bin	0	0
bin	1	0
scalar Net60.rte[53].queue[1] busy:timeavg 0
attr interpolationmode sample-hold
attr title "server busy state, timeavg"
scalar Net60.rte[53].queue[1] qlen:timeavg 0
attr interpolationmode sample-hold
attr title "queue length, timeavg"
scalar Net60.rte[53].queue[1] qlen:max 0
attr interpolationmode sample-hold
attr title "queue length, max"
scalar Net60.rte[53].queue[1] drop:count 0
attr interpolationmode none
attr title "dropped packet byte length, count"
attr unit bytes
scalar Net60.rte[53].queue[1] drop:sum 0
attr interpolationmode none
attr title "dropped packet byte length, sum"
attr unit bytes
scalar Net60.rte[53].queue[2] rxBytes:count 34
attr interpolationmode none
attr title "received packet byte length, count"
attr unit bytes
scalar Net60.rte[53].queue[2] rxBytes:sum 1114112
attr interpolationmode none
attr title "received packet byte length, sum"
attr unit bytes
statistic Net60.rte[53].queue[2] rxBytes:histogram
field count 34
field mean 32768
field stddev 0
field min 32768
field max 32768
field sum 1114112
field sqrsum 36507222016
attr interpolationmode none
attr title "received packet byte length, histogram"
attr unit bytes
bin	-inf	0
bin	32767	0
bin	32768	34
bin	32769	0
scalar Net60.rte[53].queue[2] txBytes:count 6
attr interpolationmode none
attr title "transmitting packet byte length, count"
attr unit bytes
scalar Net60.rte[53].queue[2] txBytes:sum 196608
attr interpolationmode none
attr title "transmitting packet byte length, sum"
attr unit bytes
statistic Net60.rte[53].queue[2] txBytes:histogram
field count 6
field mean 32768
field stddev 0
field min 32768
field max 32768
field sum 196608
field sqrsum 6442450944
attr interpolationmode none
attr title "transmitting packet byte length, histogram"
attr unit bytes
bin	-inf	0
bin	32767	0
bin	32768	6
bin	32769	0
scalar Net60.rte[53].queue[2] busy:timeavg 0.11943484816173
attr interpolationmode sample-hold
attr title "server busy state, timeavg"
scalar Net60.rte[53].queue[2] qlen:timeavg 0.016399721571732
attr interpolationmode sample-hold
attr title "queue length, timeavg"
scalar Net60.rte[53].queue[2] qlen:max 1
attr interpolationmode sample-hold
attr title "queue length, max"
scalar Net60.rte[53].queue[2] drop:count 0
attr interpolationmode none
attr title "dropped packet byte length, count"
attr unit bytes
scalar Net60.rte[53].queue[2] drop:sum 0
attr interpolationmode none
attr title "dropped packet byte length, sum"
attr unit bytes
scalar Net60.rte[53].queue[3] rxBytes:count 7
attr interpolationmode none
attr title "received packet byte length, count"
attr unit bytes
scalar Net60.rte[53].queue[3] rxBytes:sum 229376
attr interpolationmode none
attr title "received packet byte length, sum"
attr unit bytes
statistic Net60.rte[53].queue[3] rxBytes:histogram
field count 7
field mean 32768
field stddev 0
field min 32768
field max 32768
field sum 229376
field sqrsum 7516192768
attr interpolationmode none
attr title "received packet byte length, histogram"
attr unit bytes
bin	-inf	0
bin	32767	0
bin	32768	7
bin	32769	0
scalar Net60.rte[53].queue[3] txBytes:count 0
attr interpolationmode none
attr title "transmitting packet byte length, count"
attr unit bytes
scalar Net60.rte[53].queue[3] txBytes:sum 0
attr interpolationmode none
attr title "transmitting packet byte length, sum"
attr unit bytes
statistic Net60.rte[53].queue[3] txBytes:histogram
field count 0
field mean nan
field stddev nan
field min nan
field max nan
field sum 0
field sqrsum 0
attr interpolationmode none
attr title "transmitting packet byte length, histogram"
attr unit bytes
bin	-inf	0
bin	0	0
bin	1	0
scalar Net60.rte[53].queue[3] busy:timeavg 0
attr interpolationmode sample-hold
attr title "server busy state, timeavg"
scalar Net60.rte[53].queue[3] qlen:timeavg 0
attr interpolationmode sample-hold
attr title "queue length, timeavg"
scalar Net60.rte[53].queue[3] qlen:max 0
attr interpolationmode sample-hold
attr title "queue length, max"
scalar Net60.rte[53].queue[3] drop:count 0
attr interpolationmode none
attr title "dropped packet byte length, count"
attr unit bytes
scalar Net60.rte[53].queue[3] drop:sum 0
attr interpolationmode none
attr title "dropped packet byte length, sum"
attr unit bytes
scalar Net60.rte[54].app hopCount:mean nan
attr interpolationmode none
attr title "hop count of arrived packets, mean"
scalar Net60.rte[54].app hopCount:max nan
attr interpolationmode none
attr title "hop count of arrived packets, max"
scalar Net60.rte[54].app endToEndDelay:mean nan
attr interpolationmode none
attr title "end-to-end delay of arrived packets, mean"
attr unit s
scalar Net60.rte[54].app endToEndDelay:max nan
attr interpolationmode none
attr title "end-to-end delay of arrived packets, max"
attr unit s
statistic Net60.rte[54].routing outputIf:histogram
field count 4
field mean 0
field stddev 0
field min 0
field max 0
field sum 0
field sqrsum 0
attr interpolationmode none
attr title "output interface for each routed packet, histogram"
bin	-inf	0
bin	-0.5	0
bin	-0.48	0
bin	-0.46	0
bin	-0.44	0
bin	-0.42	0
bin	-0.4	0
bin	-0.38	0
bin	-0.36	0
bin	-0.34	0
bin	-0.32	0
bin	-0.3	0
bin	-0.28	0
bin	-0.26	0
bin	-0.24	0
bin	-0.22	0
bin	-0.2	0
bin	-0.18	0
bin	-0.16	0
bin	-0.14	0
bin	-0.12	0
bin	-0.1	0
bin	-0.08	0
bin	-0.06	0
bin	-0.04	0
bin	-0.02	0
bin	0	4
bin	0.02	0
bin	0.04	0
bin	0.06	0
bin	0.08	0
bin	0.1	0
bin	0.12	0
bin	0.14	0
bin	0.16	0
bin	0.18	0
bin	0.2	0
bin	0.22	0
bin	0.24	0
bin	0.26	0
bin	0.28	0
bin	0.3	0
bin	0.32	0
bin	0.34	0
bin	0.36	0
bin	0.38	0
bin	0.4	0
bin	0.42	0
bin	0.44	0
bin	0.46	0
bin	0.48	0
bin	0.5	0
scalar Net60.rte[54].routing drop:count 0
attr interpolationmode none
attr title "dropped packet byte length, count"
attr unit bytes
scalar Net60.rte[54].routing drop:sum 0
attr interpolationmode none
attr title "dropped packet byte length, sum"
attr unit bytes
scalar Net60.rte[54].queue[0] rxBytes:count 0
attr interpolationmode none
attr title "received packet byte length, count"
attr unit bytes
scalar Net60.rte[54].queue[0] rxBytes:sum 0
attr interpolationmode none
attr title "received packet byte length, sum"
attr unit bytes
statistic Net60.rte[54].queue[0] rxBytes:histogram
field count 0
field mean nan
field stddev nan
field min nan
field max nan
field sum 0
field sqrsum 0
attr interpolationmode none
attr title "received packet byte length, histogram"
attr unit bytes
bin	-inf	0
bin	0	0
bin	1	0
scalar Net60.rte[54].queue[0] txBytes:count 4
attr interpolationmode none
attr title "transmitting packet byte length, count"
attr unit bytes
scalar Net60.rte[54].queue[0] txBytes:sum 131072
attr interpolationmode none
attr title "transmitting packet byte length, sum"
attr unit bytes
statistic Net60.rte[54].queue[0] txBytes:histogram
field count 4
field mean 32768
field stddev 0
field min 32768
field max 32768
field sum 131072
field sqrsum 4294967296
attr interpolationmode none
attr title "transmitting packet byte length, histogram"
attr unit bytes
bin	-inf	0
bin	32767	0
bin	32768	4
bin	32769	0
scalar Net60.rte[54].queue[0] busy:timeavg 0.079623232107822
attr interpolationmode sample-hold
attr title "server busy state, timeavg"
scalar Net60.rte[54].queue[0] qlen:timeavg 0
attr interpolationmode sample-hold
attr title "queue length, timeavg"
scalar Net60.rte[54].queue[0] qlen:max 0
attr interpolationmode sample-hold
attr title "queue length, max"
scalar Net60.rte[54].queue[0] drop:count 0
attr interpolationmode none
attr title "dropped packet byte length, count"
attr unit bytes
scalar Net60.rte[54].queue[0] drop:sum 0
attr interpolationmode none
attr title "dropped packet byte length, sum"
attr unit bytes
scalar Net60.rte[54].queue[1] rxBytes:count 1
attr interpolationmode none
attr title "received packet byte length, count"
attr unit bytes
scalar Net60.rte[54].queue[1] rxBytes:sum 32768
attr interpolationmode none
attr title "received packet byte length, sum"
attr unit bytes
statistic Net60.rte[54].queue[1] rxBytes:histogram
field count 1
field mean 32768
field stddev nan
field min 32768
field max 32768
field sum 32768
field sqrsum 1073741824
attr interpolationmode none
attr title "received packet byte length, histogram"
attr unit bytes
bin	-inf	0
bin	32767	0
bin	32768	1
bin	32769	0
scalar Net60.rte[54].queue[1] txBytes:count 0
attr interpolationmode none
attr title "transmitting packet byte length, count"
attr unit bytes
scalar Net60.rte[54].queue[1] txBytes:sum 0
attr interpolationmode none
attr title "transmitting packet byte length, sum"
attr unit bytes
statistic Net60.rte[54].queue[1] txBytes:histogram
field count 0
field mean nan
field stddev nan
field min nan
field max nan
field sum 0
field sqrsum 0
attr interpolationmode none
attr title "transmitting packet byte length, histogram"
attr unit bytes
bin	-inf	0
bin	0	0
bin	1	0
scalar Net60.rte[54].queue[1] busy:timeavg 0
attr interpolationmode sample-hold
attr title "server busy state, timeavg"
scalar Net60.rte[54].queue[1] qlen:timeavg 0
attr interpolationmode sample-hold
attr title "queue length, timeavg"
scalar Net60.rte[54].queue[1] qlen:max 0
attr interpolationmode sample-hold
attr title "queue length, max"
scalar Net60.rte[54].queue[1] drop:count 0
attr interpolationmode none
attr title "dropped packet byte length, count"
attr unit bytes
scalar Net60.rte[54].queue[1] drop:sum 0
attr interpolationmode none
attr title "dropped packet byte length, sum"
attr unit bytes
scalar Net60.rte[55].app hopCount:mean nan
attr interpolationmode none
attr title "hop count of arrived packets, mean"
scalar Net60.rte[55].app hopCount:max nan
attr interpolationmode none
attr title "hop count of arrived packets, max"
scalar Net60.rte[55].app endToEndDelay:mean nan
attr interpolationmode none
attr title "end-to-end delay of arrived packets, mean"
attr unit s
scalar Net60.rte[55].app endToEndDelay:max nan
attr interpolationmode none
attr title "end-to-end delay of arrived packets, max"
attr unit s
statistic Net60.rte[55].routing outputIf:histogram
field count 3
field mean 0.66666666666667
field stddev 0.57735026918963
field min 0
field max 1
field sum 2
field sqrsum 2
attr interpolationmode none
attr title "output interface for each routed packet, histogram"
bin	-inf	0
bin	0	1
bin	1	2
bin	2	0
scalar Net60.rte[55].routing drop:count 0
attr interpolationmode none
attr title "dropped packet byte length, count"
attr unit bytes
scalar Net60.rte[55].routing drop:sum 0
attr interpolationmode none
attr title "dropped packet byte length, sum"
attr unit bytes
scalar Net60.rte[55].queue[0] rxBytes:count 0
attr interpolationmode none
attr title "received packet byte length, count"
attr unit bytes
scalar Net60.rte[55].queue[0] rxBytes:sum 0
attr interpolationmode none
attr title "received packet byte length, sum"
attr unit bytes
statistic Net60.rte[55].queue[0] rxBytes:histogram
field count 0
field mean nan
field stddev nan
field min nan
field max nan
field sum 0
field sqrsum 0
attr interpolationmode none
attr title "received packet byte length, histogram"
attr unit bytes
bin	-inf	0
bin	0	0
bin	1	0
scalar Net60.rte[55].queue[0] txBytes:count 1
attr interpolationmode none
attr title "transmitting packet byte length, count"
attr unit bytes
scalar Net60.rte[55].queue[0] txBytes:sum 32768
attr interpolationmode none
attr title "transmitting packet byte length, sum"
attr unit bytes
statistic Net60.rte[55].queue[0] txBytes:histogram
field count 1
field mean 32768
field stddev nan
field min 32768
field max 32768
field sum 32768
field sqrsum 1073741824
attr interpolationmode none
attr title "transmitting packet byte length, histogram"
attr unit bytes
bin	-inf	0
bin	32767	0
bin	32768	1
bin	32769	0
scalar Net60.rte[55].queue[0] busy:timeavg 0.019905808026955
attr interpolationmode sample-hold
attr title "server busy state, timeavg"
scalar Net60.rte[55].queue[0] qlen:timeavg 0
attr interpolationmode sample-hold
attr title "queue length, timeavg"
scalar Net60.rte[55].queue[0] qlen:max 0
attr interpolationmode sample-hold
attr title "queue length, max"
scalar Net60.rte[55].queue[0] drop:count 0
attr interpolationmode none
attr title "dropped packet byte length, count"
attr unit bytes
scalar Net60.rte[55].queue[0] drop:sum 0
attr interpolationmode none
attr title "dropped packet byte length, sum"
attr unit bytes
scalar Net60.rte[55].queue[1] rxBytes:count 0
attr interpolationmode none
attr title "received packet byte length, count"
attr unit bytes
scalar Net60.rte[55].queue[1] rxBytes:sum 0
attr interpolationmode none
attr title "received packet byte length, sum"
attr unit bytes
statistic Net60.rte[55].queue[1] rxBytes:histogram
field count 0
field mean nan
field stddev nan
field min nan
field max nan
field sum 0
field sqrsum 0
attr interpolationmode none
attr title "received packet byte length, histogram"
attr unit bytes
bin	-inf	0
bin	0	0
bin	1	0
scalar Net60.rte[55].queue[1] txBytes:count 2
attr interpolationmode none
attr title "transmitting packet byte length, count"
attr unit bytes
scalar Net60.rte[55].queue[1] txBytes:sum 65536
attr interpolationmode none
attr title "transmitting packet byte length, sum"
attr unit bytes
statistic Net60.rte[55].queue[1] txBytes:histogram
field count 2
field mean 32768
field stddev 0
field min 32768
field max 32768
field sum 65536
field sqrsum 2147483648
attr interpolationmode none
attr title "transmitting packet byte length, histogram"
attr unit bytes
bin	-inf	0
bin	32767	0
bin	32768	2
bin	32769	0
scalar Net60.rte[55].queue[1] busy:timeavg 0.039811616053911
attr interpolationmode sample-hold
attr title "server busy state, timeavg"
scalar Net60.rte[55].queue[1] qlen:timeavg 0
attr interpolationmode sample-hold
attr title "queue length, timeavg"
scalar Net60.rte[55].queue[1] qlen:max 0
attr interpolationmode sample-hold
attr title "queue length, max"
scalar Net60.rte[55].queue[1] drop:count 0
attr interpolationmode none
attr title "dropped packet byte length, count"
attr unit bytes
scalar Net60.rte[55].queue[1] drop:sum 0
attr interpolationmode none
attr title "dropped packet byte length, sum"
attr unit bytes
scalar Net60.rte[56].app hopCount:mean nan
attr interpolationmode none
attr title "hop count of arrived packets, mean"
scalar Net60.rte[56].app hopCount:max nan
attr interpolationmode none
attr title "hop count of arrived packets, max"
scalar Net60.rte[56].app endToEndDelay:mean nan
attr interpolationmode none
attr title "end-to-end delay of arrived packets, mean"
attr unit s
scalar Net60.rte[56].app endToEndDelay:max nan
attr interpolationmode none
attr title "end-to-end delay of arrived packets, max"
attr unit s
statistic Net60.rte[56].routing outputIf:histogram
field count 7
field mean 0
field stddev 0
field min 0
field max 0
field sum 0
field sqrsum 0
attr interpolationmode none
attr title "output interface for each routed packet, histogram"
bin	-inf	0
bin	-0.5	0
bin	-0.48	0
bin	-0.46	0
bin	-0.44	0
bin	-0.42	0
bin	-0.4	0
bin	-0.38	0
bin	-0.36	0
bin	-0.34	0
bin	-0.32	0
bin	-0.3	0
bin	-0.28	0
bin	-0.26	0
bin	-0.24	0
bin	-0.22	0
bin	-0.2	0
bin	-0.18	0
bin	-0.16	0
bin	-0.14	0
bin	-0.12	0
bin	-0.1	0
bin	-0.08	0
bin	-0.06	0
bin	-0.04	0
bin	-0.02	0
bin	0	7
bin	0.02	0
bin	0.04	0
bin	0.06	0
bin	0.08	0
bin	0.1	0
bin	0.12	0
bin	0.14	0
bin	0.16	0
bin	0.18	0
bin	0.2	0
bin	0.22	0
bin	0.24	0
bin	0.26	0
bin	0.28	0
bin	0.3	0
bin	0.32	0
bin	0.34	0
bin	0.36	0
bin	0.38	0
bin	0.4	0
bin	0.42	0
bin	0.44	0
bin	0.46	0
bin	0.48	0
bin	0.5	0
scalar Net60.rte[56].routing drop:count 0
attr interpolationmode none
attr title "dropped packet byte length, count"
attr unit bytes
scalar Net60.rte[56].routing drop:sum 0
attr interpolationmode none
attr title "dropped packet byte length, sum"
attr unit bytes
scalar Net60.rte[56].queue[0] rxBytes:count 0
attr interpolationmode none
attr title "received packet byte length, count"
attr unit bytes
scalar Net60.rte[56].queue[0] rxBytes:sum 0
attr interpolationmode none
attr title "received packet byte length, sum"
attr unit bytes
statistic Net60.rte[56].queue[0] rxBytes:histogram
field count 0
field mean nan
field stddev nan
field min nan
field max nan
field sum 0
field sqrsum 0
attr interpolationmode none
attr title "received packet byte length, histogram"
attr unit bytes
bin	-inf	0
bin	0	0
bin	1	0
scalar Net60.rte[56].queue[0] txBytes:count 7
attr interpolationmode none
attr title "transmitting packet byte length, count"
attr unit bytes
scalar Net60.rte[56].queue[0] txBytes:sum 229376
attr interpolationmode none
attr title "transmitting packet byte length, sum"
attr unit bytes
statistic Net60.rte[56].queue[0] txBytes:histogram
field count 7
field mean 32768
field stddev 0
field min 32768
field max 32768
field sum 229376
field sqrsum 7516192768
attr interpolationmode none
attr title "transmitting packet byte length, histogram"
attr unit bytes
bin	-inf	0
bin	32767	0
bin	32768	7
bin	32769	0
scalar Net60.rte[56].queue[0] busy:timeavg 0.13934065618869
attr interpolationmode sample-hold
attr title "server busy state, timeavg"
scalar Net60.rte[56].queue[0] qlen:timeavg 0
attr interpolationmode sample-hold
attr title "queue length, timeavg"
scalar Net60.rte[56].queue[0] qlen:max 0
attr interpolationmode sample-hold
attr title "queue length, max"
scalar Net60.rte[56].queue[0] drop:count 0
attr interpolationmode none
attr title "dropped packet byte length, count"
attr unit bytes
scalar Net60.rte[56].queue[0] drop:sum 0
attr interpolationmode none
attr title "dropped packet byte length, sum"
attr unit bytes
scalar Net60.rte[56].queue[1] rxBytes:count 2
attr interpolationmode none
attr title "received packet byte length, count"
attr unit bytes
scalar Net60.rte[56].queue[1] rxBytes:sum 65536
attr interpolationmode none
attr title "received packet byte length, sum"
attr unit bytes
statistic Net60.rte[56].queue[1] rxBytes:histogram
field count 2
field mean 32768
field stddev 0
field min 32768
field max 32768
field sum 65536
field sqrsum 2147483648
attr interpolationmode none
attr title "received packet byte length, histogram"
attr unit bytes
bin	-inf	0
bin	32767	0
bin	32768	2
bin	32769	0
scalar Net60.rte[56].queue[1] txBytes:count 0
attr interpolationmode none
attr title "transmitting packet byte length, count"
attr unit bytes
scalar Net60.rte[56].queue[1] txBytes:sum 0
attr interpolationmode none
attr title "transmitting packet byte length, sum"
attr unit bytes
statistic Net60.rte[56].queue[1] txBytes:histogram
field count 0
field mean nan
field stddev nan
field min nan
field max nan
field sum 0
field sqrsum 0
attr interpolationmode none
attr title "transmitting packet byte length, histogram"
attr unit bytes
bin	-inf	0
bin	0	0
bin	1	0
scalar Net60.rte[56].queue[1] busy:timeavg 0
attr interpolationmode sample-hold
attr title "server busy state, timeavg"
scalar Net60.rte[56].queue[1] qlen:timeavg 0
attr interpolationmode sample-hold
attr title "queue length, timeavg"
scalar Net60.rte[56].queue[1] qlen:max 0
attr interpolationmode sample-hold
attr title "queue length, max"
scalar Net60.rte[56].queue[1] drop:count 0
attr interpolationmode none
attr title "dropped packet byte length, count"
attr unit bytes
scalar Net60.rte[56].queue[1] drop:sum 0
attr interpolationmode none
attr title "dropped packet byte length, sum"
attr unit bytes

