version 2
run RandomGraph-0-20210316-23:23:49-14908
attr configname RandomGraph
attr datetime 20210316-23:23:49
attr experiment RandomGraph
attr inifile omnetpp.ini
attr iterationvars ""
attr iterationvarsf ""
attr measurement ""
attr network networks.RandomGraph
attr processid 14908
attr repetition 0
attr replication #0
attr resultdir results
attr runnumber 0
attr seedset 0
param **.destAddresses "\"0 2\""
param **.appType "\"App\""
param **.app.packetLength "4096 bytes"

scalar RandomGraph.node[0].app hopCount:mean nan
attr interpolationmode none
attr title "hop count of arrived packets, mean"
scalar RandomGraph.node[0].app hopCount:max nan
attr interpolationmode none
attr title "hop count of arrived packets, max"
scalar RandomGraph.node[0].app endToEndDelay:mean nan
attr interpolationmode none
attr title "end-to-end delay of arrived packets, mean"
attr unit s
scalar RandomGraph.node[0].app endToEndDelay:max nan
attr interpolationmode none
attr title "end-to-end delay of arrived packets, max"
attr unit s
statistic RandomGraph.node[0].routing outputIf:histogram
field count 0
field mean nan
field stddev nan
field min nan
field max nan
field sum 0
field sqrsum 0
attr interpolationmode none
attr title "output interface for each routed packet, histogram"
bin	-inf	0
bin	0	0
bin	1	0
scalar RandomGraph.node[0].routing drop:count 0
attr interpolationmode none
attr title "dropped packet byte length, count"
attr unit bytes
scalar RandomGraph.node[0].routing drop:sum 0
attr interpolationmode none
attr title "dropped packet byte length, sum"
attr unit bytes
scalar RandomGraph.node[0].queue[0] rxBytes:count 0
attr interpolationmode none
attr title "received packet byte length, count"
attr unit bytes
scalar RandomGraph.node[0].queue[0] rxBytes:sum 0
attr interpolationmode none
attr title "received packet byte length, sum"
attr unit bytes
statistic RandomGraph.node[0].queue[0] rxBytes:histogram
field count 0
field mean nan
field stddev nan
field min nan
field max nan
field sum 0
field sqrsum 0
attr interpolationmode none
attr title "received packet byte length, histogram"
attr unit bytes
bin	-inf	0
bin	0	0
bin	1	0
scalar RandomGraph.node[0].queue[0] txBytes:count 0
attr interpolationmode none
attr title "transmitting packet byte length, count"
attr unit bytes
scalar RandomGraph.node[0].queue[0] txBytes:sum 0
attr interpolationmode none
attr title "transmitting packet byte length, sum"
attr unit bytes
statistic RandomGraph.node[0].queue[0] txBytes:histogram
field count 0
field mean nan
field stddev nan
field min nan
field max nan
field sum 0
field sqrsum 0
attr interpolationmode none
attr title "transmitting packet byte length, histogram"
attr unit bytes
bin	-inf	0
bin	0	0
bin	1	0
scalar RandomGraph.node[0].queue[0] busy:timeavg 0
attr interpolationmode sample-hold
attr title "server busy state, timeavg"
scalar RandomGraph.node[0].queue[0] qlen:timeavg 0
attr interpolationmode sample-hold
attr title "queue length, timeavg"
scalar RandomGraph.node[0].queue[0] qlen:max 0
attr interpolationmode sample-hold
attr title "queue length, max"
scalar RandomGraph.node[0].queue[0] drop:count 0
attr interpolationmode none
attr title "dropped packet byte length, count"
attr unit bytes
scalar RandomGraph.node[0].queue[0] drop:sum 0
attr interpolationmode none
attr title "dropped packet byte length, sum"
attr unit bytes
scalar RandomGraph.node[0].queue[1] rxBytes:count 0
attr interpolationmode none
attr title "received packet byte length, count"
attr unit bytes
scalar RandomGraph.node[0].queue[1] rxBytes:sum 0
attr interpolationmode none
attr title "received packet byte length, sum"
attr unit bytes
statistic RandomGraph.node[0].queue[1] rxBytes:histogram
field count 0
field mean nan
field stddev nan
field min nan
field max nan
field sum 0
field sqrsum 0
attr interpolationmode none
attr title "received packet byte length, histogram"
attr unit bytes
bin	-inf	0
bin	0	0
bin	1	0
scalar RandomGraph.node[0].queue[1] txBytes:count 0
attr interpolationmode none
attr title "transmitting packet byte length, count"
attr unit bytes
scalar RandomGraph.node[0].queue[1] txBytes:sum 0
attr interpolationmode none
attr title "transmitting packet byte length, sum"
attr unit bytes
statistic RandomGraph.node[0].queue[1] txBytes:histogram
field count 0
field mean nan
field stddev nan
field min nan
field max nan
field sum 0
field sqrsum 0
attr interpolationmode none
attr title "transmitting packet byte length, histogram"
attr unit bytes
bin	-inf	0
bin	0	0
bin	1	0
scalar RandomGraph.node[0].queue[1] busy:timeavg 0
attr interpolationmode sample-hold
attr title "server busy state, timeavg"
scalar RandomGraph.node[0].queue[1] qlen:timeavg 0
attr interpolationmode sample-hold
attr title "queue length, timeavg"
scalar RandomGraph.node[0].queue[1] qlen:max 0
attr interpolationmode sample-hold
attr title "queue length, max"
scalar RandomGraph.node[0].queue[1] drop:count 0
attr interpolationmode none
attr title "dropped packet byte length, count"
attr unit bytes
scalar RandomGraph.node[0].queue[1] drop:sum 0
attr interpolationmode none
attr title "dropped packet byte length, sum"
attr unit bytes
scalar RandomGraph.node[0].queue[2] rxBytes:count 0
attr interpolationmode none
attr title "received packet byte length, count"
attr unit bytes
scalar RandomGraph.node[0].queue[2] rxBytes:sum 0
attr interpolationmode none
attr title "received packet byte length, sum"
attr unit bytes
statistic RandomGraph.node[0].queue[2] rxBytes:histogram
field count 0
field mean nan
field stddev nan
field min nan
field max nan
field sum 0
field sqrsum 0
attr interpolationmode none
attr title "received packet byte length, histogram"
attr unit bytes
bin	-inf	0
bin	0	0
bin	1	0
scalar RandomGraph.node[0].queue[2] txBytes:count 0
attr interpolationmode none
attr title "transmitting packet byte length, count"
attr unit bytes
scalar RandomGraph.node[0].queue[2] txBytes:sum 0
attr interpolationmode none
attr title "transmitting packet byte length, sum"
attr unit bytes
statistic RandomGraph.node[0].queue[2] txBytes:histogram
field count 0
field mean nan
field stddev nan
field min nan
field max nan
field sum 0
field sqrsum 0
attr interpolationmode none
attr title "transmitting packet byte length, histogram"
attr unit bytes
bin	-inf	0
bin	0	0
bin	1	0
scalar RandomGraph.node[0].queue[2] busy:timeavg 0
attr interpolationmode sample-hold
attr title "server busy state, timeavg"
scalar RandomGraph.node[0].queue[2] qlen:timeavg 0
attr interpolationmode sample-hold
attr title "queue length, timeavg"
scalar RandomGraph.node[0].queue[2] qlen:max 0
attr interpolationmode sample-hold
attr title "queue length, max"
scalar RandomGraph.node[0].queue[2] drop:count 0
attr interpolationmode none
attr title "dropped packet byte length, count"
attr unit bytes
scalar RandomGraph.node[0].queue[2] drop:sum 0
attr interpolationmode none
attr title "dropped packet byte length, sum"
attr unit bytes
scalar RandomGraph.node[0].queue[3] rxBytes:count 0
attr interpolationmode none
attr title "received packet byte length, count"
attr unit bytes
scalar RandomGraph.node[0].queue[3] rxBytes:sum 0
attr interpolationmode none
attr title "received packet byte length, sum"
attr unit bytes
statistic RandomGraph.node[0].queue[3] rxBytes:histogram
field count 0
field mean nan
field stddev nan
field min nan
field max nan
field sum 0
field sqrsum 0
attr interpolationmode none
attr title "received packet byte length, histogram"
attr unit bytes
bin	-inf	0
bin	0	0
bin	1	0
scalar RandomGraph.node[0].queue[3] txBytes:count 0
attr interpolationmode none
attr title "transmitting packet byte length, count"
attr unit bytes
scalar RandomGraph.node[0].queue[3] txBytes:sum 0
attr interpolationmode none
attr title "transmitting packet byte length, sum"
attr unit bytes
statistic RandomGraph.node[0].queue[3] txBytes:histogram
field count 0
field mean nan
field stddev nan
field min nan
field max nan
field sum 0
field sqrsum 0
attr interpolationmode none
attr title "transmitting packet byte length, histogram"
attr unit bytes
bin	-inf	0
bin	0	0
bin	1	0
scalar RandomGraph.node[0].queue[3] busy:timeavg 0
attr interpolationmode sample-hold
attr title "server busy state, timeavg"
scalar RandomGraph.node[0].queue[3] qlen:timeavg 0
attr interpolationmode sample-hold
attr title "queue length, timeavg"
scalar RandomGraph.node[0].queue[3] qlen:max 0
attr interpolationmode sample-hold
attr title "queue length, max"
scalar RandomGraph.node[0].queue[3] drop:count 0
attr interpolationmode none
attr title "dropped packet byte length, count"
attr unit bytes
scalar RandomGraph.node[0].queue[3] drop:sum 0
attr interpolationmode none
attr title "dropped packet byte length, sum"
attr unit bytes
scalar RandomGraph.node[0].queue[4] rxBytes:count 0
attr interpolationmode none
attr title "received packet byte length, count"
attr unit bytes
scalar RandomGraph.node[0].queue[4] rxBytes:sum 0
attr interpolationmode none
attr title "received packet byte length, sum"
attr unit bytes
statistic RandomGraph.node[0].queue[4] rxBytes:histogram
field count 0
field mean nan
field stddev nan
field min nan
field max nan
field sum 0
field sqrsum 0
attr interpolationmode none
attr title "received packet byte length, histogram"
attr unit bytes
bin	-inf	0
bin	0	0
bin	1	0
scalar RandomGraph.node[0].queue[4] txBytes:count 0
attr interpolationmode none
attr title "transmitting packet byte length, count"
attr unit bytes
scalar RandomGraph.node[0].queue[4] txBytes:sum 0
attr interpolationmode none
attr title "transmitting packet byte length, sum"
attr unit bytes
statistic RandomGraph.node[0].queue[4] txBytes:histogram
field count 0
field mean nan
field stddev nan
field min nan
field max nan
field sum 0
field sqrsum 0
attr interpolationmode none
attr title "transmitting packet byte length, histogram"
attr unit bytes
bin	-inf	0
bin	0	0
bin	1	0
scalar RandomGraph.node[0].queue[4] busy:timeavg 0
attr interpolationmode sample-hold
attr title "server busy state, timeavg"
scalar RandomGraph.node[0].queue[4] qlen:timeavg 0
attr interpolationmode sample-hold
attr title "queue length, timeavg"
scalar RandomGraph.node[0].queue[4] qlen:max 0
attr interpolationmode sample-hold
attr title "queue length, max"
scalar RandomGraph.node[0].queue[4] drop:count 0
attr interpolationmode none
attr title "dropped packet byte length, count"
attr unit bytes
scalar RandomGraph.node[0].queue[4] drop:sum 0
attr interpolationmode none
attr title "dropped packet byte length, sum"
attr unit bytes
scalar RandomGraph.node[0].queue[5] rxBytes:count 0
attr interpolationmode none
attr title "received packet byte length, count"
attr unit bytes
scalar RandomGraph.node[0].queue[5] rxBytes:sum 0
attr interpolationmode none
attr title "received packet byte length, sum"
attr unit bytes
statistic RandomGraph.node[0].queue[5] rxBytes:histogram
field count 0
field mean nan
field stddev nan
field min nan
field max nan
field sum 0
field sqrsum 0
attr interpolationmode none
attr title "received packet byte length, histogram"
attr unit bytes
bin	-inf	0
bin	0	0
bin	1	0
scalar RandomGraph.node[0].queue[5] txBytes:count 0
attr interpolationmode none
attr title "transmitting packet byte length, count"
attr unit bytes
scalar RandomGraph.node[0].queue[5] txBytes:sum 0
attr interpolationmode none
attr title "transmitting packet byte length, sum"
attr unit bytes
statistic RandomGraph.node[0].queue[5] txBytes:histogram
field count 0
field mean nan
field stddev nan
field min nan
field max nan
field sum 0
field sqrsum 0
attr interpolationmode none
attr title "transmitting packet byte length, histogram"
attr unit bytes
bin	-inf	0
bin	0	0
bin	1	0
scalar RandomGraph.node[0].queue[5] busy:timeavg 0
attr interpolationmode sample-hold
attr title "server busy state, timeavg"
scalar RandomGraph.node[0].queue[5] qlen:timeavg 0
attr interpolationmode sample-hold
attr title "queue length, timeavg"
scalar RandomGraph.node[0].queue[5] qlen:max 0
attr interpolationmode sample-hold
attr title "queue length, max"
scalar RandomGraph.node[0].queue[5] drop:count 0
attr interpolationmode none
attr title "dropped packet byte length, count"
attr unit bytes
scalar RandomGraph.node[0].queue[5] drop:sum 0
attr interpolationmode none
attr title "dropped packet byte length, sum"
attr unit bytes
scalar RandomGraph.node[0].queue[6] rxBytes:count 0
attr interpolationmode none
attr title "received packet byte length, count"
attr unit bytes
scalar RandomGraph.node[0].queue[6] rxBytes:sum 0
attr interpolationmode none
attr title "received packet byte length, sum"
attr unit bytes
statistic RandomGraph.node[0].queue[6] rxBytes:histogram
field count 0
field mean nan
field stddev nan
field min nan
field max nan
field sum 0
field sqrsum 0
attr interpolationmode none
attr title "received packet byte length, histogram"
attr unit bytes
bin	-inf	0
bin	0	0
bin	1	0
scalar RandomGraph.node[0].queue[6] txBytes:count 0
attr interpolationmode none
attr title "transmitting packet byte length, count"
attr unit bytes
scalar RandomGraph.node[0].queue[6] txBytes:sum 0
attr interpolationmode none
attr title "transmitting packet byte length, sum"
attr unit bytes
statistic RandomGraph.node[0].queue[6] txBytes:histogram
field count 0
field mean nan
field stddev nan
field min nan
field max nan
field sum 0
field sqrsum 0
attr interpolationmode none
attr title "transmitting packet byte length, histogram"
attr unit bytes
bin	-inf	0
bin	0	0
bin	1	0
scalar RandomGraph.node[0].queue[6] busy:timeavg 0
attr interpolationmode sample-hold
attr title "server busy state, timeavg"
scalar RandomGraph.node[0].queue[6] qlen:timeavg 0
attr interpolationmode sample-hold
attr title "queue length, timeavg"
scalar RandomGraph.node[0].queue[6] qlen:max 0
attr interpolationmode sample-hold
attr title "queue length, max"
scalar RandomGraph.node[0].queue[6] drop:count 0
attr interpolationmode none
attr title "dropped packet byte length, count"
attr unit bytes
scalar RandomGraph.node[0].queue[6] drop:sum 0
attr interpolationmode none
attr title "dropped packet byte length, sum"
attr unit bytes
scalar RandomGraph.node[0].queue[7] rxBytes:count 0
attr interpolationmode none
attr title "received packet byte length, count"
attr unit bytes
scalar RandomGraph.node[0].queue[7] rxBytes:sum 0
attr interpolationmode none
attr title "received packet byte length, sum"
attr unit bytes
statistic RandomGraph.node[0].queue[7] rxBytes:histogram
field count 0
field mean nan
field stddev nan
field min nan
field max nan
field sum 0
field sqrsum 0
attr interpolationmode none
attr title "received packet byte length, histogram"
attr unit bytes
bin	-inf	0
bin	0	0
bin	1	0
scalar RandomGraph.node[0].queue[7] txBytes:count 0
attr interpolationmode none
attr title "transmitting packet byte length, count"
attr unit bytes
scalar RandomGraph.node[0].queue[7] txBytes:sum 0
attr interpolationmode none
attr title "transmitting packet byte length, sum"
attr unit bytes
statistic RandomGraph.node[0].queue[7] txBytes:histogram
field count 0
field mean nan
field stddev nan
field min nan
field max nan
field sum 0
field sqrsum 0
attr interpolationmode none
attr title "transmitting packet byte length, histogram"
attr unit bytes
bin	-inf	0
bin	0	0
bin	1	0
scalar RandomGraph.node[0].queue[7] busy:timeavg 0
attr interpolationmode sample-hold
attr title "server busy state, timeavg"
scalar RandomGraph.node[0].queue[7] qlen:timeavg 0
attr interpolationmode sample-hold
attr title "queue length, timeavg"
scalar RandomGraph.node[0].queue[7] qlen:max 0
attr interpolationmode sample-hold
attr title "queue length, max"
scalar RandomGraph.node[0].queue[7] drop:count 0
attr interpolationmode none
attr title "dropped packet byte length, count"
attr unit bytes
scalar RandomGraph.node[0].queue[7] drop:sum 0
attr interpolationmode none
attr title "dropped packet byte length, sum"
attr unit bytes
scalar RandomGraph.node[0].queue[8] rxBytes:count 0
attr interpolationmode none
attr title "received packet byte length, count"
attr unit bytes
scalar RandomGraph.node[0].queue[8] rxBytes:sum 0
attr interpolationmode none
attr title "received packet byte length, sum"
attr unit bytes
statistic RandomGraph.node[0].queue[8] rxBytes:histogram
field count 0
field mean nan
field stddev nan
field min nan
field max nan
field sum 0
field sqrsum 0
attr interpolationmode none
attr title "received packet byte length, histogram"
attr unit bytes
bin	-inf	0
bin	0	0
bin	1	0
scalar RandomGraph.node[0].queue[8] txBytes:count 0
attr interpolationmode none
attr title "transmitting packet byte length, count"
attr unit bytes
scalar RandomGraph.node[0].queue[8] txBytes:sum 0
attr interpolationmode none
attr title "transmitting packet byte length, sum"
attr unit bytes
statistic RandomGraph.node[0].queue[8] txBytes:histogram
field count 0
field mean nan
field stddev nan
field min nan
field max nan
field sum 0
field sqrsum 0
attr interpolationmode none
attr title "transmitting packet byte length, histogram"
attr unit bytes
bin	-inf	0
bin	0	0
bin	1	0
scalar RandomGraph.node[0].queue[8] busy:timeavg 0
attr interpolationmode sample-hold
attr title "server busy state, timeavg"
scalar RandomGraph.node[0].queue[8] qlen:timeavg 0
attr interpolationmode sample-hold
attr title "queue length, timeavg"
scalar RandomGraph.node[0].queue[8] qlen:max 0
attr interpolationmode sample-hold
attr title "queue length, max"
scalar RandomGraph.node[0].queue[8] drop:count 0
attr interpolationmode none
attr title "dropped packet byte length, count"
attr unit bytes
scalar RandomGraph.node[0].queue[8] drop:sum 0
attr interpolationmode none
attr title "dropped packet byte length, sum"
attr unit bytes
scalar RandomGraph.node[0].queue[9] rxBytes:count 0
attr interpolationmode none
attr title "received packet byte length, count"
attr unit bytes
scalar RandomGraph.node[0].queue[9] rxBytes:sum 0
attr interpolationmode none
attr title "received packet byte length, sum"
attr unit bytes
statistic RandomGraph.node[0].queue[9] rxBytes:histogram
field count 0
field mean nan
field stddev nan
field min nan
field max nan
field sum 0
field sqrsum 0
attr interpolationmode none
attr title "received packet byte length, histogram"
attr unit bytes
bin	-inf	0
bin	0	0
bin	1	0
scalar RandomGraph.node[0].queue[9] txBytes:count 0
attr interpolationmode none
attr title "transmitting packet byte length, count"
attr unit bytes
scalar RandomGraph.node[0].queue[9] txBytes:sum 0
attr interpolationmode none
attr title "transmitting packet byte length, sum"
attr unit bytes
statistic RandomGraph.node[0].queue[9] txBytes:histogram
field count 0
field mean nan
field stddev nan
field min nan
field max nan
field sum 0
field sqrsum 0
attr interpolationmode none
attr title "transmitting packet byte length, histogram"
attr unit bytes
bin	-inf	0
bin	0	0
bin	1	0
scalar RandomGraph.node[0].queue[9] busy:timeavg 0
attr interpolationmode sample-hold
attr title "server busy state, timeavg"
scalar RandomGraph.node[0].queue[9] qlen:timeavg 0
attr interpolationmode sample-hold
attr title "queue length, timeavg"
scalar RandomGraph.node[0].queue[9] qlen:max 0
attr interpolationmode sample-hold
attr title "queue length, max"
scalar RandomGraph.node[0].queue[9] drop:count 0
attr interpolationmode none
attr title "dropped packet byte length, count"
attr unit bytes
scalar RandomGraph.node[0].queue[9] drop:sum 0
attr interpolationmode none
attr title "dropped packet byte length, sum"
attr unit bytes
scalar RandomGraph.node[0].queue[10] rxBytes:count 0
attr interpolationmode none
attr title "received packet byte length, count"
attr unit bytes
scalar RandomGraph.node[0].queue[10] rxBytes:sum 0
attr interpolationmode none
attr title "received packet byte length, sum"
attr unit bytes
statistic RandomGraph.node[0].queue[10] rxBytes:histogram
field count 0
field mean nan
field stddev nan
field min nan
field max nan
field sum 0
field sqrsum 0
attr interpolationmode none
attr title "received packet byte length, histogram"
attr unit bytes
bin	-inf	0
bin	0	0
bin	1	0
scalar RandomGraph.node[0].queue[10] txBytes:count 0
attr interpolationmode none
attr title "transmitting packet byte length, count"
attr unit bytes
scalar RandomGraph.node[0].queue[10] txBytes:sum 0
attr interpolationmode none
attr title "transmitting packet byte length, sum"
attr unit bytes
statistic RandomGraph.node[0].queue[10] txBytes:histogram
field count 0
field mean nan
field stddev nan
field min nan
field max nan
field sum 0
field sqrsum 0
attr interpolationmode none
attr title "transmitting packet byte length, histogram"
attr unit bytes
bin	-inf	0
bin	0	0
bin	1	0
scalar RandomGraph.node[0].queue[10] busy:timeavg 0
attr interpolationmode sample-hold
attr title "server busy state, timeavg"
scalar RandomGraph.node[0].queue[10] qlen:timeavg 0
attr interpolationmode sample-hold
attr title "queue length, timeavg"
scalar RandomGraph.node[0].queue[10] qlen:max 0
attr interpolationmode sample-hold
attr title "queue length, max"
scalar RandomGraph.node[0].queue[10] drop:count 0
attr interpolationmode none
attr title "dropped packet byte length, count"
attr unit bytes
scalar RandomGraph.node[0].queue[10] drop:sum 0
attr interpolationmode none
attr title "dropped packet byte length, sum"
attr unit bytes
scalar RandomGraph.node[0].queue[11] rxBytes:count 0
attr interpolationmode none
attr title "received packet byte length, count"
attr unit bytes
scalar RandomGraph.node[0].queue[11] rxBytes:sum 0
attr interpolationmode none
attr title "received packet byte length, sum"
attr unit bytes
statistic RandomGraph.node[0].queue[11] rxBytes:histogram
field count 0
field mean nan
field stddev nan
field min nan
field max nan
field sum 0
field sqrsum 0
attr interpolationmode none
attr title "received packet byte length, histogram"
attr unit bytes
bin	-inf	0
bin	0	0
bin	1	0
scalar RandomGraph.node[0].queue[11] txBytes:count 0
attr interpolationmode none
attr title "transmitting packet byte length, count"
attr unit bytes
scalar RandomGraph.node[0].queue[11] txBytes:sum 0
attr interpolationmode none
attr title "transmitting packet byte length, sum"
attr unit bytes
statistic RandomGraph.node[0].queue[11] txBytes:histogram
field count 0
field mean nan
field stddev nan
field min nan
field max nan
field sum 0
field sqrsum 0
attr interpolationmode none
attr title "transmitting packet byte length, histogram"
attr unit bytes
bin	-inf	0
bin	0	0
bin	1	0
scalar RandomGraph.node[0].queue[11] busy:timeavg 0
attr interpolationmode sample-hold
attr title "server busy state, timeavg"
scalar RandomGraph.node[0].queue[11] qlen:timeavg 0
attr interpolationmode sample-hold
attr title "queue length, timeavg"
scalar RandomGraph.node[0].queue[11] qlen:max 0
attr interpolationmode sample-hold
attr title "queue length, max"
scalar RandomGraph.node[0].queue[11] drop:count 0
attr interpolationmode none
attr title "dropped packet byte length, count"
attr unit bytes
scalar RandomGraph.node[0].queue[11] drop:sum 0
attr interpolationmode none
attr title "dropped packet byte length, sum"
attr unit bytes
scalar RandomGraph.node[0].queue[12] rxBytes:count 0
attr interpolationmode none
attr title "received packet byte length, count"
attr unit bytes
scalar RandomGraph.node[0].queue[12] rxBytes:sum 0
attr interpolationmode none
attr title "received packet byte length, sum"
attr unit bytes
statistic RandomGraph.node[0].queue[12] rxBytes:histogram
field count 0
field mean nan
field stddev nan
field min nan
field max nan
field sum 0
field sqrsum 0
attr interpolationmode none
attr title "received packet byte length, histogram"
attr unit bytes
bin	-inf	0
bin	0	0
bin	1	0
scalar RandomGraph.node[0].queue[12] txBytes:count 0
attr interpolationmode none
attr title "transmitting packet byte length, count"
attr unit bytes
scalar RandomGraph.node[0].queue[12] txBytes:sum 0
attr interpolationmode none
attr title "transmitting packet byte length, sum"
attr unit bytes
statistic RandomGraph.node[0].queue[12] txBytes:histogram
field count 0
field mean nan
field stddev nan
field min nan
field max nan
field sum 0
field sqrsum 0
attr interpolationmode none
attr title "transmitting packet byte length, histogram"
attr unit bytes
bin	-inf	0
bin	0	0
bin	1	0
scalar RandomGraph.node[0].queue[12] busy:timeavg 0
attr interpolationmode sample-hold
attr title "server busy state, timeavg"
scalar RandomGraph.node[0].queue[12] qlen:timeavg 0
attr interpolationmode sample-hold
attr title "queue length, timeavg"
scalar RandomGraph.node[0].queue[12] qlen:max 0
attr interpolationmode sample-hold
attr title "queue length, max"
scalar RandomGraph.node[0].queue[12] drop:count 0
attr interpolationmode none
attr title "dropped packet byte length, count"
attr unit bytes
scalar RandomGraph.node[0].queue[12] drop:sum 0
attr interpolationmode none
attr title "dropped packet byte length, sum"
attr unit bytes
scalar RandomGraph.node[0].queue[13] rxBytes:count 0
attr interpolationmode none
attr title "received packet byte length, count"
attr unit bytes
scalar RandomGraph.node[0].queue[13] rxBytes:sum 0
attr interpolationmode none
attr title "received packet byte length, sum"
attr unit bytes
statistic RandomGraph.node[0].queue[13] rxBytes:histogram
field count 0
field mean nan
field stddev nan
field min nan
field max nan
field sum 0
field sqrsum 0
attr interpolationmode none
attr title "received packet byte length, histogram"
attr unit bytes
bin	-inf	0
bin	0	0
bin	1	0
scalar RandomGraph.node[0].queue[13] txBytes:count 0
attr interpolationmode none
attr title "transmitting packet byte length, count"
attr unit bytes
scalar RandomGraph.node[0].queue[13] txBytes:sum 0
attr interpolationmode none
attr title "transmitting packet byte length, sum"
attr unit bytes
statistic RandomGraph.node[0].queue[13] txBytes:histogram
field count 0
field mean nan
field stddev nan
field min nan
field max nan
field sum 0
field sqrsum 0
attr interpolationmode none
attr title "transmitting packet byte length, histogram"
attr unit bytes
bin	-inf	0
bin	0	0
bin	1	0
scalar RandomGraph.node[0].queue[13] busy:timeavg 0
attr interpolationmode sample-hold
attr title "server busy state, timeavg"
scalar RandomGraph.node[0].queue[13] qlen:timeavg 0
attr interpolationmode sample-hold
attr title "queue length, timeavg"
scalar RandomGraph.node[0].queue[13] qlen:max 0
attr interpolationmode sample-hold
attr title "queue length, max"
scalar RandomGraph.node[0].queue[13] drop:count 0
attr interpolationmode none
attr title "dropped packet byte length, count"
attr unit bytes
scalar RandomGraph.node[0].queue[13] drop:sum 0
attr interpolationmode none
attr title "dropped packet byte length, sum"
attr unit bytes
scalar RandomGraph.node[0].queue[14] rxBytes:count 0
attr interpolationmode none
attr title "received packet byte length, count"
attr unit bytes
scalar RandomGraph.node[0].queue[14] rxBytes:sum 0
attr interpolationmode none
attr title "received packet byte length, sum"
attr unit bytes
statistic RandomGraph.node[0].queue[14] rxBytes:histogram
field count 0
field mean nan
field stddev nan
field min nan
field max nan
field sum 0
field sqrsum 0
attr interpolationmode none
attr title "received packet byte length, histogram"
attr unit bytes
bin	-inf	0
bin	0	0
bin	1	0
scalar RandomGraph.node[0].queue[14] txBytes:count 0
attr interpolationmode none
attr title "transmitting packet byte length, count"
attr unit bytes
scalar RandomGraph.node[0].queue[14] txBytes:sum 0
attr interpolationmode none
attr title "transmitting packet byte length, sum"
attr unit bytes
statistic RandomGraph.node[0].queue[14] txBytes:histogram
field count 0
field mean nan
field stddev nan
field min nan
field max nan
field sum 0
field sqrsum 0
attr interpolationmode none
attr title "transmitting packet byte length, histogram"
attr unit bytes
bin	-inf	0
bin	0	0
bin	1	0
scalar RandomGraph.node[0].queue[14] busy:timeavg 0
attr interpolationmode sample-hold
attr title "server busy state, timeavg"
scalar RandomGraph.node[0].queue[14] qlen:timeavg 0
attr interpolationmode sample-hold
attr title "queue length, timeavg"
scalar RandomGraph.node[0].queue[14] qlen:max 0
attr interpolationmode sample-hold
attr title "queue length, max"
scalar RandomGraph.node[0].queue[14] drop:count 0
attr interpolationmode none
attr title "dropped packet byte length, count"
attr unit bytes
scalar RandomGraph.node[0].queue[14] drop:sum 0
attr interpolationmode none
attr title "dropped packet byte length, sum"
attr unit bytes
scalar RandomGraph.node[1].app hopCount:mean nan
attr interpolationmode none
attr title "hop count of arrived packets, mean"
scalar RandomGraph.node[1].app hopCount:max nan
attr interpolationmode none
attr title "hop count of arrived packets, max"
scalar RandomGraph.node[1].app endToEndDelay:mean nan
attr interpolationmode none
attr title "end-to-end delay of arrived packets, mean"
attr unit s
scalar RandomGraph.node[1].app endToEndDelay:max nan
attr interpolationmode none
attr title "end-to-end delay of arrived packets, max"
attr unit s
statistic RandomGraph.node[1].routing outputIf:histogram
field count 1
field mean 3
field stddev nan
field min 3
field max 3
field sum 3
field sqrsum 9
attr interpolationmode none
attr title "output interface for each routed packet, histogram"
bin	-inf	0
bin	2	0
bin	3	1
bin	4	0
scalar RandomGraph.node[1].routing drop:count 0
attr interpolationmode none
attr title "dropped packet byte length, count"
attr unit bytes
scalar RandomGraph.node[1].routing drop:sum 0
attr interpolationmode none
attr title "dropped packet byte length, sum"
attr unit bytes
scalar RandomGraph.node[1].queue[0] rxBytes:count 0
attr interpolationmode none
attr title "received packet byte length, count"
attr unit bytes
scalar RandomGraph.node[1].queue[0] rxBytes:sum 0
attr interpolationmode none
attr title "received packet byte length, sum"
attr unit bytes
statistic RandomGraph.node[1].queue[0] rxBytes:histogram
field count 0
field mean nan
field stddev nan
field min nan
field max nan
field sum 0
field sqrsum 0
attr interpolationmode none
attr title "received packet byte length, histogram"
attr unit bytes
bin	-inf	0
bin	0	0
bin	1	0
scalar RandomGraph.node[1].queue[0] txBytes:count 0
attr interpolationmode none
attr title "transmitting packet byte length, count"
attr unit bytes
scalar RandomGraph.node[1].queue[0] txBytes:sum 0
attr interpolationmode none
attr title "transmitting packet byte length, sum"
attr unit bytes
statistic RandomGraph.node[1].queue[0] txBytes:histogram
field count 0
field mean nan
field stddev nan
field min nan
field max nan
field sum 0
field sqrsum 0
attr interpolationmode none
attr title "transmitting packet byte length, histogram"
attr unit bytes
bin	-inf	0
bin	0	0
bin	1	0
scalar RandomGraph.node[1].queue[0] busy:timeavg 0
attr interpolationmode sample-hold
attr title "server busy state, timeavg"
scalar RandomGraph.node[1].queue[0] qlen:timeavg 0
attr interpolationmode sample-hold
attr title "queue length, timeavg"
scalar RandomGraph.node[1].queue[0] qlen:max 0
attr interpolationmode sample-hold
attr title "queue length, max"
scalar RandomGraph.node[1].queue[0] drop:count 0
attr interpolationmode none
attr title "dropped packet byte length, count"
attr unit bytes
scalar RandomGraph.node[1].queue[0] drop:sum 0
attr interpolationmode none
attr title "dropped packet byte length, sum"
attr unit bytes
scalar RandomGraph.node[1].queue[1] rxBytes:count 0
attr interpolationmode none
attr title "received packet byte length, count"
attr unit bytes
scalar RandomGraph.node[1].queue[1] rxBytes:sum 0
attr interpolationmode none
attr title "received packet byte length, sum"
attr unit bytes
statistic RandomGraph.node[1].queue[1] rxBytes:histogram
field count 0
field mean nan
field stddev nan
field min nan
field max nan
field sum 0
field sqrsum 0
attr interpolationmode none
attr title "received packet byte length, histogram"
attr unit bytes
bin	-inf	0
bin	0	0
bin	1	0
scalar RandomGraph.node[1].queue[1] txBytes:count 0
attr interpolationmode none
attr title "transmitting packet byte length, count"
attr unit bytes
scalar RandomGraph.node[1].queue[1] txBytes:sum 0
attr interpolationmode none
attr title "transmitting packet byte length, sum"
attr unit bytes
statistic RandomGraph.node[1].queue[1] txBytes:histogram
field count 0
field mean nan
field stddev nan
field min nan
field max nan
field sum 0
field sqrsum 0
attr interpolationmode none
attr title "transmitting packet byte length, histogram"
attr unit bytes
bin	-inf	0
bin	0	0
bin	1	0
scalar RandomGraph.node[1].queue[1] busy:timeavg 0
attr interpolationmode sample-hold
attr title "server busy state, timeavg"
scalar RandomGraph.node[1].queue[1] qlen:timeavg 0
attr interpolationmode sample-hold
attr title "queue length, timeavg"
scalar RandomGraph.node[1].queue[1] qlen:max 0
attr interpolationmode sample-hold
attr title "queue length, max"
scalar RandomGraph.node[1].queue[1] drop:count 0
attr interpolationmode none
attr title "dropped packet byte length, count"
attr unit bytes
scalar RandomGraph.node[1].queue[1] drop:sum 0
attr interpolationmode none
attr title "dropped packet byte length, sum"
attr unit bytes
scalar RandomGraph.node[1].queue[2] rxBytes:count 0
attr interpolationmode none
attr title "received packet byte length, count"
attr unit bytes
scalar RandomGraph.node[1].queue[2] rxBytes:sum 0
attr interpolationmode none
attr title "received packet byte length, sum"
attr unit bytes
statistic RandomGraph.node[1].queue[2] rxBytes:histogram
field count 0
field mean nan
field stddev nan
field min nan
field max nan
field sum 0
field sqrsum 0
attr interpolationmode none
attr title "received packet byte length, histogram"
attr unit bytes
bin	-inf	0
bin	0	0
bin	1	0
scalar RandomGraph.node[1].queue[2] txBytes:count 0
attr interpolationmode none
attr title "transmitting packet byte length, count"
attr unit bytes
scalar RandomGraph.node[1].queue[2] txBytes:sum 0
attr interpolationmode none
attr title "transmitting packet byte length, sum"
attr unit bytes
statistic RandomGraph.node[1].queue[2] txBytes:histogram
field count 0
field mean nan
field stddev nan
field min nan
field max nan
field sum 0
field sqrsum 0
attr interpolationmode none
attr title "transmitting packet byte length, histogram"
attr unit bytes
bin	-inf	0
bin	0	0
bin	1	0
scalar RandomGraph.node[1].queue[2] busy:timeavg 0
attr interpolationmode sample-hold
attr title "server busy state, timeavg"
scalar RandomGraph.node[1].queue[2] qlen:timeavg 0
attr interpolationmode sample-hold
attr title "queue length, timeavg"
scalar RandomGraph.node[1].queue[2] qlen:max 0
attr interpolationmode sample-hold
attr title "queue length, max"
scalar RandomGraph.node[1].queue[2] drop:count 0
attr interpolationmode none
attr title "dropped packet byte length, count"
attr unit bytes
scalar RandomGraph.node[1].queue[2] drop:sum 0
attr interpolationmode none
attr title "dropped packet byte length, sum"
attr unit bytes
scalar RandomGraph.node[1].queue[3] rxBytes:count 0
attr interpolationmode none
attr title "received packet byte length, count"
attr unit bytes
scalar RandomGraph.node[1].queue[3] rxBytes:sum 0
attr interpolationmode none
attr title "received packet byte length, sum"
attr unit bytes
statistic RandomGraph.node[1].queue[3] rxBytes:histogram
field count 0
field mean nan
field stddev nan
field min nan
field max nan
field sum 0
field sqrsum 0
attr interpolationmode none
attr title "received packet byte length, histogram"
attr unit bytes
bin	-inf	0
bin	0	0
bin	1	0
scalar RandomGraph.node[1].queue[3] txBytes:count 1
attr interpolationmode none
attr title "transmitting packet byte length, count"
attr unit bytes
scalar RandomGraph.node[1].queue[3] txBytes:sum 4096
attr interpolationmode none
attr title "transmitting packet byte length, sum"
attr unit bytes
statistic RandomGraph.node[1].queue[3] txBytes:histogram
field count 1
field mean 4096
field stddev nan
field min 4096
field max 4096
field sum 4096
field sqrsum 16777216
attr interpolationmode none
attr title "transmitting packet byte length, histogram"
attr unit bytes
bin	-inf	0
bin	4095	0
bin	4096	1
bin	4097	0
scalar RandomGraph.node[1].queue[3] busy:timeavg 0.00018613283835548
attr interpolationmode sample-hold
attr title "server busy state, timeavg"
scalar RandomGraph.node[1].queue[3] qlen:timeavg 0
attr interpolationmode sample-hold
attr title "queue length, timeavg"
scalar RandomGraph.node[1].queue[3] qlen:max 0
attr interpolationmode sample-hold
attr title "queue length, max"
scalar RandomGraph.node[1].queue[3] drop:count 0
attr interpolationmode none
attr title "dropped packet byte length, count"
attr unit bytes
scalar RandomGraph.node[1].queue[3] drop:sum 0
attr interpolationmode none
attr title "dropped packet byte length, sum"
attr unit bytes
scalar RandomGraph.node[1].queue[4] rxBytes:count 0
attr interpolationmode none
attr title "received packet byte length, count"
attr unit bytes
scalar RandomGraph.node[1].queue[4] rxBytes:sum 0
attr interpolationmode none
attr title "received packet byte length, sum"
attr unit bytes
statistic RandomGraph.node[1].queue[4] rxBytes:histogram
field count 0
field mean nan
field stddev nan
field min nan
field max nan
field sum 0
field sqrsum 0
attr interpolationmode none
attr title "received packet byte length, histogram"
attr unit bytes
bin	-inf	0
bin	0	0
bin	1	0
scalar RandomGraph.node[1].queue[4] txBytes:count 0
attr interpolationmode none
attr title "transmitting packet byte length, count"
attr unit bytes
scalar RandomGraph.node[1].queue[4] txBytes:sum 0
attr interpolationmode none
attr title "transmitting packet byte length, sum"
attr unit bytes
statistic RandomGraph.node[1].queue[4] txBytes:histogram
field count 0
field mean nan
field stddev nan
field min nan
field max nan
field sum 0
field sqrsum 0
attr interpolationmode none
attr title "transmitting packet byte length, histogram"
attr unit bytes
bin	-inf	0
bin	0	0
bin	1	0
scalar RandomGraph.node[1].queue[4] busy:timeavg 0
attr interpolationmode sample-hold
attr title "server busy state, timeavg"
scalar RandomGraph.node[1].queue[4] qlen:timeavg 0
attr interpolationmode sample-hold
attr title "queue length, timeavg"
scalar RandomGraph.node[1].queue[4] qlen:max 0
attr interpolationmode sample-hold
attr title "queue length, max"
scalar RandomGraph.node[1].queue[4] drop:count 0
attr interpolationmode none
attr title "dropped packet byte length, count"
attr unit bytes
scalar RandomGraph.node[1].queue[4] drop:sum 0
attr interpolationmode none
attr title "dropped packet byte length, sum"
attr unit bytes
scalar RandomGraph.node[1].queue[5] rxBytes:count 0
attr interpolationmode none
attr title "received packet byte length, count"
attr unit bytes
scalar RandomGraph.node[1].queue[5] rxBytes:sum 0
attr interpolationmode none
attr title "received packet byte length, sum"
attr unit bytes
statistic RandomGraph.node[1].queue[5] rxBytes:histogram
field count 0
field mean nan
field stddev nan
field min nan
field max nan
field sum 0
field sqrsum 0
attr interpolationmode none
attr title "received packet byte length, histogram"
attr unit bytes
bin	-inf	0
bin	0	0
bin	1	0
scalar RandomGraph.node[1].queue[5] txBytes:count 0
attr interpolationmode none
attr title "transmitting packet byte length, count"
attr unit bytes
scalar RandomGraph.node[1].queue[5] txBytes:sum 0
attr interpolationmode none
attr title "transmitting packet byte length, sum"
attr unit bytes
statistic RandomGraph.node[1].queue[5] txBytes:histogram
field count 0
field mean nan
field stddev nan
field min nan
field max nan
field sum 0
field sqrsum 0
attr interpolationmode none
attr title "transmitting packet byte length, histogram"
attr unit bytes
bin	-inf	0
bin	0	0
bin	1	0
scalar RandomGraph.node[1].queue[5] busy:timeavg 0
attr interpolationmode sample-hold
attr title "server busy state, timeavg"
scalar RandomGraph.node[1].queue[5] qlen:timeavg 0
attr interpolationmode sample-hold
attr title "queue length, timeavg"
scalar RandomGraph.node[1].queue[5] qlen:max 0
attr interpolationmode sample-hold
attr title "queue length, max"
scalar RandomGraph.node[1].queue[5] drop:count 0
attr interpolationmode none
attr title "dropped packet byte length, count"
attr unit bytes
scalar RandomGraph.node[1].queue[5] drop:sum 0
attr interpolationmode none
attr title "dropped packet byte length, sum"
attr unit bytes
scalar RandomGraph.node[1].queue[6] rxBytes:count 0
attr interpolationmode none
attr title "received packet byte length, count"
attr unit bytes
scalar RandomGraph.node[1].queue[6] rxBytes:sum 0
attr interpolationmode none
attr title "received packet byte length, sum"
attr unit bytes
statistic RandomGraph.node[1].queue[6] rxBytes:histogram
field count 0
field mean nan
field stddev nan
field min nan
field max nan
field sum 0
field sqrsum 0
attr interpolationmode none
attr title "received packet byte length, histogram"
attr unit bytes
bin	-inf	0
bin	0	0
bin	1	0
scalar RandomGraph.node[1].queue[6] txBytes:count 0
attr interpolationmode none
attr title "transmitting packet byte length, count"
attr unit bytes
scalar RandomGraph.node[1].queue[6] txBytes:sum 0
attr interpolationmode none
attr title "transmitting packet byte length, sum"
attr unit bytes
statistic RandomGraph.node[1].queue[6] txBytes:histogram
field count 0
field mean nan
field stddev nan
field min nan
field max nan
field sum 0
field sqrsum 0
attr interpolationmode none
attr title "transmitting packet byte length, histogram"
attr unit bytes
bin	-inf	0
bin	0	0
bin	1	0
scalar RandomGraph.node[1].queue[6] busy:timeavg 0
attr interpolationmode sample-hold
attr title "server busy state, timeavg"
scalar RandomGraph.node[1].queue[6] qlen:timeavg 0
attr interpolationmode sample-hold
attr title "queue length, timeavg"
scalar RandomGraph.node[1].queue[6] qlen:max 0
attr interpolationmode sample-hold
attr title "queue length, max"
scalar RandomGraph.node[1].queue[6] drop:count 0
attr interpolationmode none
attr title "dropped packet byte length, count"
attr unit bytes
scalar RandomGraph.node[1].queue[6] drop:sum 0
attr interpolationmode none
attr title "dropped packet byte length, sum"
attr unit bytes
scalar RandomGraph.node[1].queue[7] rxBytes:count 0
attr interpolationmode none
attr title "received packet byte length, count"
attr unit bytes
scalar RandomGraph.node[1].queue[7] rxBytes:sum 0
attr interpolationmode none
attr title "received packet byte length, sum"
attr unit bytes
statistic RandomGraph.node[1].queue[7] rxBytes:histogram
field count 0
field mean nan
field stddev nan
field min nan
field max nan
field sum 0
field sqrsum 0
attr interpolationmode none
attr title "received packet byte length, histogram"
attr unit bytes
bin	-inf	0
bin	0	0
bin	1	0
scalar RandomGraph.node[1].queue[7] txBytes:count 0
attr interpolationmode none
attr title "transmitting packet byte length, count"
attr unit bytes
scalar RandomGraph.node[1].queue[7] txBytes:sum 0
attr interpolationmode none
attr title "transmitting packet byte length, sum"
attr unit bytes
statistic RandomGraph.node[1].queue[7] txBytes:histogram
field count 0
field mean nan
field stddev nan
field min nan
field max nan
field sum 0
field sqrsum 0
attr interpolationmode none
attr title "transmitting packet byte length, histogram"
attr unit bytes
bin	-inf	0
bin	0	0
bin	1	0
scalar RandomGraph.node[1].queue[7] busy:timeavg 0
attr interpolationmode sample-hold
attr title "server busy state, timeavg"
scalar RandomGraph.node[1].queue[7] qlen:timeavg 0
attr interpolationmode sample-hold
attr title "queue length, timeavg"
scalar RandomGraph.node[1].queue[7] qlen:max 0
attr interpolationmode sample-hold
attr title "queue length, max"
scalar RandomGraph.node[1].queue[7] drop:count 0
attr interpolationmode none
attr title "dropped packet byte length, count"
attr unit bytes
scalar RandomGraph.node[1].queue[7] drop:sum 0
attr interpolationmode none
attr title "dropped packet byte length, sum"
attr unit bytes
scalar RandomGraph.node[1].queue[8] rxBytes:count 0
attr interpolationmode none
attr title "received packet byte length, count"
attr unit bytes
scalar RandomGraph.node[1].queue[8] rxBytes:sum 0
attr interpolationmode none
attr title "received packet byte length, sum"
attr unit bytes
statistic RandomGraph.node[1].queue[8] rxBytes:histogram
field count 0
field mean nan
field stddev nan
field min nan
field max nan
field sum 0
field sqrsum 0
attr interpolationmode none
attr title "received packet byte length, histogram"
attr unit bytes
bin	-inf	0
bin	0	0
bin	1	0
scalar RandomGraph.node[1].queue[8] txBytes:count 0
attr interpolationmode none
attr title "transmitting packet byte length, count"
attr unit bytes
scalar RandomGraph.node[1].queue[8] txBytes:sum 0
attr interpolationmode none
attr title "transmitting packet byte length, sum"
attr unit bytes
statistic RandomGraph.node[1].queue[8] txBytes:histogram
field count 0
field mean nan
field stddev nan
field min nan
field max nan
field sum 0
field sqrsum 0
attr interpolationmode none
attr title "transmitting packet byte length, histogram"
attr unit bytes
bin	-inf	0
bin	0	0
bin	1	0
scalar RandomGraph.node[1].queue[8] busy:timeavg 0
attr interpolationmode sample-hold
attr title "server busy state, timeavg"
scalar RandomGraph.node[1].queue[8] qlen:timeavg 0
attr interpolationmode sample-hold
attr title "queue length, timeavg"
scalar RandomGraph.node[1].queue[8] qlen:max 0
attr interpolationmode sample-hold
attr title "queue length, max"
scalar RandomGraph.node[1].queue[8] drop:count 0
attr interpolationmode none
attr title "dropped packet byte length, count"
attr unit bytes
scalar RandomGraph.node[1].queue[8] drop:sum 0
attr interpolationmode none
attr title "dropped packet byte length, sum"
attr unit bytes
scalar RandomGraph.node[1].queue[9] rxBytes:count 0
attr interpolationmode none
attr title "received packet byte length, count"
attr unit bytes
scalar RandomGraph.node[1].queue[9] rxBytes:sum 0
attr interpolationmode none
attr title "received packet byte length, sum"
attr unit bytes
statistic RandomGraph.node[1].queue[9] rxBytes:histogram
field count 0
field mean nan
field stddev nan
field min nan
field max nan
field sum 0
field sqrsum 0
attr interpolationmode none
attr title "received packet byte length, histogram"
attr unit bytes
bin	-inf	0
bin	0	0
bin	1	0
scalar RandomGraph.node[1].queue[9] txBytes:count 0
attr interpolationmode none
attr title "transmitting packet byte length, count"
attr unit bytes
scalar RandomGraph.node[1].queue[9] txBytes:sum 0
attr interpolationmode none
attr title "transmitting packet byte length, sum"
attr unit bytes
statistic RandomGraph.node[1].queue[9] txBytes:histogram
field count 0
field mean nan
field stddev nan
field min nan
field max nan
field sum 0
field sqrsum 0
attr interpolationmode none
attr title "transmitting packet byte length, histogram"
attr unit bytes
bin	-inf	0
bin	0	0
bin	1	0
scalar RandomGraph.node[1].queue[9] busy:timeavg 0
attr interpolationmode sample-hold
attr title "server busy state, timeavg"
scalar RandomGraph.node[1].queue[9] qlen:timeavg 0
attr interpolationmode sample-hold
attr title "queue length, timeavg"
scalar RandomGraph.node[1].queue[9] qlen:max 0
attr interpolationmode sample-hold
attr title "queue length, max"
scalar RandomGraph.node[1].queue[9] drop:count 0
attr interpolationmode none
attr title "dropped packet byte length, count"
attr unit bytes
scalar RandomGraph.node[1].queue[9] drop:sum 0
attr interpolationmode none
attr title "dropped packet byte length, sum"
attr unit bytes
scalar RandomGraph.node[1].queue[10] rxBytes:count 0
attr interpolationmode none
attr title "received packet byte length, count"
attr unit bytes
scalar RandomGraph.node[1].queue[10] rxBytes:sum 0
attr interpolationmode none
attr title "received packet byte length, sum"
attr unit bytes
statistic RandomGraph.node[1].queue[10] rxBytes:histogram
field count 0
field mean nan
field stddev nan
field min nan
field max nan
field sum 0
field sqrsum 0
attr interpolationmode none
attr title "received packet byte length, histogram"
attr unit bytes
bin	-inf	0
bin	0	0
bin	1	0
scalar RandomGraph.node[1].queue[10] txBytes:count 0
attr interpolationmode none
attr title "transmitting packet byte length, count"
attr unit bytes
scalar RandomGraph.node[1].queue[10] txBytes:sum 0
attr interpolationmode none
attr title "transmitting packet byte length, sum"
attr unit bytes
statistic RandomGraph.node[1].queue[10] txBytes:histogram
field count 0
field mean nan
field stddev nan
field min nan
field max nan
field sum 0
field sqrsum 0
attr interpolationmode none
attr title "transmitting packet byte length, histogram"
attr unit bytes
bin	-inf	0
bin	0	0
bin	1	0
scalar RandomGraph.node[1].queue[10] busy:timeavg 0
attr interpolationmode sample-hold
attr title "server busy state, timeavg"
scalar RandomGraph.node[1].queue[10] qlen:timeavg 0
attr interpolationmode sample-hold
attr title "queue length, timeavg"
scalar RandomGraph.node[1].queue[10] qlen:max 0
attr interpolationmode sample-hold
attr title "queue length, max"
scalar RandomGraph.node[1].queue[10] drop:count 0
attr interpolationmode none
attr title "dropped packet byte length, count"
attr unit bytes
scalar RandomGraph.node[1].queue[10] drop:sum 0
attr interpolationmode none
attr title "dropped packet byte length, sum"
attr unit bytes
scalar RandomGraph.node[1].queue[11] rxBytes:count 0
attr interpolationmode none
attr title "received packet byte length, count"
attr unit bytes
scalar RandomGraph.node[1].queue[11] rxBytes:sum 0
attr interpolationmode none
attr title "received packet byte length, sum"
attr unit bytes
statistic RandomGraph.node[1].queue[11] rxBytes:histogram
field count 0
field mean nan
field stddev nan
field min nan
field max nan
field sum 0
field sqrsum 0
attr interpolationmode none
attr title "received packet byte length, histogram"
attr unit bytes
bin	-inf	0
bin	0	0
bin	1	0
scalar RandomGraph.node[1].queue[11] txBytes:count 0
attr interpolationmode none
attr title "transmitting packet byte length, count"
attr unit bytes
scalar RandomGraph.node[1].queue[11] txBytes:sum 0
attr interpolationmode none
attr title "transmitting packet byte length, sum"
attr unit bytes
statistic RandomGraph.node[1].queue[11] txBytes:histogram
field count 0
field mean nan
field stddev nan
field min nan
field max nan
field sum 0
field sqrsum 0
attr interpolationmode none
attr title "transmitting packet byte length, histogram"
attr unit bytes
bin	-inf	0
bin	0	0
bin	1	0
scalar RandomGraph.node[1].queue[11] busy:timeavg 0
attr interpolationmode sample-hold
attr title "server busy state, timeavg"
scalar RandomGraph.node[1].queue[11] qlen:timeavg 0
attr interpolationmode sample-hold
attr title "queue length, timeavg"
scalar RandomGraph.node[1].queue[11] qlen:max 0
attr interpolationmode sample-hold
attr title "queue length, max"
scalar RandomGraph.node[1].queue[11] drop:count 0
attr interpolationmode none
attr title "dropped packet byte length, count"
attr unit bytes
scalar RandomGraph.node[1].queue[11] drop:sum 0
attr interpolationmode none
attr title "dropped packet byte length, sum"
attr unit bytes
scalar RandomGraph.node[1].queue[12] rxBytes:count 0
attr interpolationmode none
attr title "received packet byte length, count"
attr unit bytes
scalar RandomGraph.node[1].queue[12] rxBytes:sum 0
attr interpolationmode none
attr title "received packet byte length, sum"
attr unit bytes
statistic RandomGraph.node[1].queue[12] rxBytes:histogram
field count 0
field mean nan
field stddev nan
field min nan
field max nan
field sum 0
field sqrsum 0
attr interpolationmode none
attr title "received packet byte length, histogram"
attr unit bytes
bin	-inf	0
bin	0	0
bin	1	0
scalar RandomGraph.node[1].queue[12] txBytes:count 0
attr interpolationmode none
attr title "transmitting packet byte length, count"
attr unit bytes
scalar RandomGraph.node[1].queue[12] txBytes:sum 0
attr interpolationmode none
attr title "transmitting packet byte length, sum"
attr unit bytes
statistic RandomGraph.node[1].queue[12] txBytes:histogram
field count 0
field mean nan
field stddev nan
field min nan
field max nan
field sum 0
field sqrsum 0
attr interpolationmode none
attr title "transmitting packet byte length, histogram"
attr unit bytes
bin	-inf	0
bin	0	0
bin	1	0
scalar RandomGraph.node[1].queue[12] busy:timeavg 0
attr interpolationmode sample-hold
attr title "server busy state, timeavg"
scalar RandomGraph.node[1].queue[12] qlen:timeavg 0
attr interpolationmode sample-hold
attr title "queue length, timeavg"
scalar RandomGraph.node[1].queue[12] qlen:max 0
attr interpolationmode sample-hold
attr title "queue length, max"
scalar RandomGraph.node[1].queue[12] drop:count 0
attr interpolationmode none
attr title "dropped packet byte length, count"
attr unit bytes
scalar RandomGraph.node[1].queue[12] drop:sum 0
attr interpolationmode none
attr title "dropped packet byte length, sum"
attr unit bytes
scalar RandomGraph.node[1].queue[13] rxBytes:count 0
attr interpolationmode none
attr title "received packet byte length, count"
attr unit bytes
scalar RandomGraph.node[1].queue[13] rxBytes:sum 0
attr interpolationmode none
attr title "received packet byte length, sum"
attr unit bytes
statistic RandomGraph.node[1].queue[13] rxBytes:histogram
field count 0
field mean nan
field stddev nan
field min nan
field max nan
field sum 0
field sqrsum 0
attr interpolationmode none
attr title "received packet byte length, histogram"
attr unit bytes
bin	-inf	0
bin	0	0
bin	1	0
scalar RandomGraph.node[1].queue[13] txBytes:count 0
attr interpolationmode none
attr title "transmitting packet byte length, count"
attr unit bytes
scalar RandomGraph.node[1].queue[13] txBytes:sum 0
attr interpolationmode none
attr title "transmitting packet byte length, sum"
attr unit bytes
statistic RandomGraph.node[1].queue[13] txBytes:histogram
field count 0
field mean nan
field stddev nan
field min nan
field max nan
field sum 0
field sqrsum 0
attr interpolationmode none
attr title "transmitting packet byte length, histogram"
attr unit bytes
bin	-inf	0
bin	0	0
bin	1	0
scalar RandomGraph.node[1].queue[13] busy:timeavg 0
attr interpolationmode sample-hold
attr title "server busy state, timeavg"
scalar RandomGraph.node[1].queue[13] qlen:timeavg 0
attr interpolationmode sample-hold
attr title "queue length, timeavg"
scalar RandomGraph.node[1].queue[13] qlen:max 0
attr interpolationmode sample-hold
attr title "queue length, max"
scalar RandomGraph.node[1].queue[13] drop:count 0
attr interpolationmode none
attr title "dropped packet byte length, count"
attr unit bytes
scalar RandomGraph.node[1].queue[13] drop:sum 0
attr interpolationmode none
attr title "dropped packet byte length, sum"
attr unit bytes
scalar RandomGraph.node[1].queue[14] rxBytes:count 0
attr interpolationmode none
attr title "received packet byte length, count"
attr unit bytes
scalar RandomGraph.node[1].queue[14] rxBytes:sum 0
attr interpolationmode none
attr title "received packet byte length, sum"
attr unit bytes
statistic RandomGraph.node[1].queue[14] rxBytes:histogram
field count 0
field mean nan
field stddev nan
field min nan
field max nan
field sum 0
field sqrsum 0
attr interpolationmode none
attr title "received packet byte length, histogram"
attr unit bytes
bin	-inf	0
bin	0	0
bin	1	0
scalar RandomGraph.node[1].queue[14] txBytes:count 0
attr interpolationmode none
attr title "transmitting packet byte length, count"
attr unit bytes
scalar RandomGraph.node[1].queue[14] txBytes:sum 0
attr interpolationmode none
attr title "transmitting packet byte length, sum"
attr unit bytes
statistic RandomGraph.node[1].queue[14] txBytes:histogram
field count 0
field mean nan
field stddev nan
field min nan
field max nan
field sum 0
field sqrsum 0
attr interpolationmode none
attr title "transmitting packet byte length, histogram"
attr unit bytes
bin	-inf	0
bin	0	0
bin	1	0
scalar RandomGraph.node[1].queue[14] busy:timeavg 0
attr interpolationmode sample-hold
attr title "server busy state, timeavg"
scalar RandomGraph.node[1].queue[14] qlen:timeavg 0
attr interpolationmode sample-hold
attr title "queue length, timeavg"
scalar RandomGraph.node[1].queue[14] qlen:max 0
attr interpolationmode sample-hold
attr title "queue length, max"
scalar RandomGraph.node[1].queue[14] drop:count 0
attr interpolationmode none
attr title "dropped packet byte length, count"
attr unit bytes
scalar RandomGraph.node[1].queue[14] drop:sum 0
attr interpolationmode none
attr title "dropped packet byte length, sum"
attr unit bytes
scalar RandomGraph.node[2].app hopCount:mean 3
attr interpolationmode none
attr title "hop count of arrived packets, mean"
scalar RandomGraph.node[2].app hopCount:max 3
attr interpolationmode none
attr title "hop count of arrived packets, max"
scalar RandomGraph.node[2].app endToEndDelay:mean 0.000398304
attr interpolationmode none
attr title "end-to-end delay of arrived packets, mean"
attr unit s
scalar RandomGraph.node[2].app endToEndDelay:max 0.000398304
attr interpolationmode none
attr title "end-to-end delay of arrived packets, max"
attr unit s
statistic RandomGraph.node[2].routing outputIf:histogram
field count 1
field mean -1
field stddev nan
field min -1
field max -1
field sum -1
field sqrsum 1
attr interpolationmode none
attr title "output interface for each routed packet, histogram"
bin	-inf	0
bin	-2	0
bin	-1	1
bin	0	0
scalar RandomGraph.node[2].routing drop:count 0
attr interpolationmode none
attr title "dropped packet byte length, count"
attr unit bytes
scalar RandomGraph.node[2].routing drop:sum 0
attr interpolationmode none
attr title "dropped packet byte length, sum"
attr unit bytes
scalar RandomGraph.node[2].queue[0] rxBytes:count 0
attr interpolationmode none
attr title "received packet byte length, count"
attr unit bytes
scalar RandomGraph.node[2].queue[0] rxBytes:sum 0
attr interpolationmode none
attr title "received packet byte length, sum"
attr unit bytes
statistic RandomGraph.node[2].queue[0] rxBytes:histogram
field count 0
field mean nan
field stddev nan
field min nan
field max nan
field sum 0
field sqrsum 0
attr interpolationmode none
attr title "received packet byte length, histogram"
attr unit bytes
bin	-inf	0
bin	0	0
bin	1	0
scalar RandomGraph.node[2].queue[0] txBytes:count 0
attr interpolationmode none
attr title "transmitting packet byte length, count"
attr unit bytes
scalar RandomGraph.node[2].queue[0] txBytes:sum 0
attr interpolationmode none
attr title "transmitting packet byte length, sum"
attr unit bytes
statistic RandomGraph.node[2].queue[0] txBytes:histogram
field count 0
field mean nan
field stddev nan
field min nan
field max nan
field sum 0
field sqrsum 0
attr interpolationmode none
attr title "transmitting packet byte length, histogram"
attr unit bytes
bin	-inf	0
bin	0	0
bin	1	0
scalar RandomGraph.node[2].queue[0] busy:timeavg 0
attr interpolationmode sample-hold
attr title "server busy state, timeavg"
scalar RandomGraph.node[2].queue[0] qlen:timeavg 0
attr interpolationmode sample-hold
attr title "queue length, timeavg"
scalar RandomGraph.node[2].queue[0] qlen:max 0
attr interpolationmode sample-hold
attr title "queue length, max"
scalar RandomGraph.node[2].queue[0] drop:count 0
attr interpolationmode none
attr title "dropped packet byte length, count"
attr unit bytes
scalar RandomGraph.node[2].queue[0] drop:sum 0
attr interpolationmode none
attr title "dropped packet byte length, sum"
attr unit bytes
scalar RandomGraph.node[2].queue[1] rxBytes:count 0
attr interpolationmode none
attr title "received packet byte length, count"
attr unit bytes
scalar RandomGraph.node[2].queue[1] rxBytes:sum 0
attr interpolationmode none
attr title "received packet byte length, sum"
attr unit bytes
statistic RandomGraph.node[2].queue[1] rxBytes:histogram
field count 0
field mean nan
field stddev nan
field min nan
field max nan
field sum 0
field sqrsum 0
attr interpolationmode none
attr title "received packet byte length, histogram"
attr unit bytes
bin	-inf	0
bin	0	0
bin	1	0
scalar RandomGraph.node[2].queue[1] txBytes:count 0
attr interpolationmode none
attr title "transmitting packet byte length, count"
attr unit bytes
scalar RandomGraph.node[2].queue[1] txBytes:sum 0
attr interpolationmode none
attr title "transmitting packet byte length, sum"
attr unit bytes
statistic RandomGraph.node[2].queue[1] txBytes:histogram
field count 0
field mean nan
field stddev nan
field min nan
field max nan
field sum 0
field sqrsum 0
attr interpolationmode none
attr title "transmitting packet byte length, histogram"
attr unit bytes
bin	-inf	0
bin	0	0
bin	1	0
scalar RandomGraph.node[2].queue[1] busy:timeavg 0
attr interpolationmode sample-hold
attr title "server busy state, timeavg"
scalar RandomGraph.node[2].queue[1] qlen:timeavg 0
attr interpolationmode sample-hold
attr title "queue length, timeavg"
scalar RandomGraph.node[2].queue[1] qlen:max 0
attr interpolationmode sample-hold
attr title "queue length, max"
scalar RandomGraph.node[2].queue[1] drop:count 0
attr interpolationmode none
attr title "dropped packet byte length, count"
attr unit bytes
scalar RandomGraph.node[2].queue[1] drop:sum 0
attr interpolationmode none
attr title "dropped packet byte length, sum"
attr unit bytes
scalar RandomGraph.node[2].queue[2] rxBytes:count 0
attr interpolationmode none
attr title "received packet byte length, count"
attr unit bytes
scalar RandomGraph.node[2].queue[2] rxBytes:sum 0
attr interpolationmode none
attr title "received packet byte length, sum"
attr unit bytes
statistic RandomGraph.node[2].queue[2] rxBytes:histogram
field count 0
field mean nan
field stddev nan
field min nan
field max nan
field sum 0
field sqrsum 0
attr interpolationmode none
attr title "received packet byte length, histogram"
attr unit bytes
bin	-inf	0
bin	0	0
bin	1	0
scalar RandomGraph.node[2].queue[2] txBytes:count 0
attr interpolationmode none
attr title "transmitting packet byte length, count"
attr unit bytes
scalar RandomGraph.node[2].queue[2] txBytes:sum 0
attr interpolationmode none
attr title "transmitting packet byte length, sum"
attr unit bytes
statistic RandomGraph.node[2].queue[2] txBytes:histogram
field count 0
field mean nan
field stddev nan
field min nan
field max nan
field sum 0
field sqrsum 0
attr interpolationmode none
attr title "transmitting packet byte length, histogram"
attr unit bytes
bin	-inf	0
bin	0	0
bin	1	0
scalar RandomGraph.node[2].queue[2] busy:timeavg 0
attr interpolationmode sample-hold
attr title "server busy state, timeavg"
scalar RandomGraph.node[2].queue[2] qlen:timeavg 0
attr interpolationmode sample-hold
attr title "queue length, timeavg"
scalar RandomGraph.node[2].queue[2] qlen:max 0
attr interpolationmode sample-hold
attr title "queue length, max"
scalar RandomGraph.node[2].queue[2] drop:count 0
attr interpolationmode none
attr title "dropped packet byte length, count"
attr unit bytes
scalar RandomGraph.node[2].queue[2] drop:sum 0
attr interpolationmode none
attr title "dropped packet byte length, sum"
attr unit bytes
scalar RandomGraph.node[2].queue[3] rxBytes:count 0
attr interpolationmode none
attr title "received packet byte length, count"
attr unit bytes
scalar RandomGraph.node[2].queue[3] rxBytes:sum 0
attr interpolationmode none
attr title "received packet byte length, sum"
attr unit bytes
statistic RandomGraph.node[2].queue[3] rxBytes:histogram
field count 0
field mean nan
field stddev nan
field min nan
field max nan
field sum 0
field sqrsum 0
attr interpolationmode none
attr title "received packet byte length, histogram"
attr unit bytes
bin	-inf	0
bin	0	0
bin	1	0
scalar RandomGraph.node[2].queue[3] txBytes:count 0
attr interpolationmode none
attr title "transmitting packet byte length, count"
attr unit bytes
scalar RandomGraph.node[2].queue[3] txBytes:sum 0
attr interpolationmode none
attr title "transmitting packet byte length, sum"
attr unit bytes
statistic RandomGraph.node[2].queue[3] txBytes:histogram
field count 0
field mean nan
field stddev nan
field min nan
field max nan
field sum 0
field sqrsum 0
attr interpolationmode none
attr title "transmitting packet byte length, histogram"
attr unit bytes
bin	-inf	0
bin	0	0
bin	1	0
scalar RandomGraph.node[2].queue[3] busy:timeavg 0
attr interpolationmode sample-hold
attr title "server busy state, timeavg"
scalar RandomGraph.node[2].queue[3] qlen:timeavg 0
attr interpolationmode sample-hold
attr title "queue length, timeavg"
scalar RandomGraph.node[2].queue[3] qlen:max 0
attr interpolationmode sample-hold
attr title "queue length, max"
scalar RandomGraph.node[2].queue[3] drop:count 0
attr interpolationmode none
attr title "dropped packet byte length, count"
attr unit bytes
scalar RandomGraph.node[2].queue[3] drop:sum 0
attr interpolationmode none
attr title "dropped packet byte length, sum"
attr unit bytes
scalar RandomGraph.node[2].queue[4] rxBytes:count 0
attr interpolationmode none
attr title "received packet byte length, count"
attr unit bytes
scalar RandomGraph.node[2].queue[4] rxBytes:sum 0
attr interpolationmode none
attr title "received packet byte length, sum"
attr unit bytes
statistic RandomGraph.node[2].queue[4] rxBytes:histogram
field count 0
field mean nan
field stddev nan
field min nan
field max nan
field sum 0
field sqrsum 0
attr interpolationmode none
attr title "received packet byte length, histogram"
attr unit bytes
bin	-inf	0
bin	0	0
bin	1	0
scalar RandomGraph.node[2].queue[4] txBytes:count 0
attr interpolationmode none
attr title "transmitting packet byte length, count"
attr unit bytes
scalar RandomGraph.node[2].queue[4] txBytes:sum 0
attr interpolationmode none
attr title "transmitting packet byte length, sum"
attr unit bytes
statistic RandomGraph.node[2].queue[4] txBytes:histogram
field count 0
field mean nan
field stddev nan
field min nan
field max nan
field sum 0
field sqrsum 0
attr interpolationmode none
attr title "transmitting packet byte length, histogram"
attr unit bytes
bin	-inf	0
bin	0	0
bin	1	0
scalar RandomGraph.node[2].queue[4] busy:timeavg 0
attr interpolationmode sample-hold
attr title "server busy state, timeavg"
scalar RandomGraph.node[2].queue[4] qlen:timeavg 0
attr interpolationmode sample-hold
attr title "queue length, timeavg"
scalar RandomGraph.node[2].queue[4] qlen:max 0
attr interpolationmode sample-hold
attr title "queue length, max"
scalar RandomGraph.node[2].queue[4] drop:count 0
attr interpolationmode none
attr title "dropped packet byte length, count"
attr unit bytes
scalar RandomGraph.node[2].queue[4] drop:sum 0
attr interpolationmode none
attr title "dropped packet byte length, sum"
attr unit bytes
scalar RandomGraph.node[2].queue[5] rxBytes:count 0
attr interpolationmode none
attr title "received packet byte length, count"
attr unit bytes
scalar RandomGraph.node[2].queue[5] rxBytes:sum 0
attr interpolationmode none
attr title "received packet byte length, sum"
attr unit bytes
statistic RandomGraph.node[2].queue[5] rxBytes:histogram
field count 0
field mean nan
field stddev nan
field min nan
field max nan
field sum 0
field sqrsum 0
attr interpolationmode none
attr title "received packet byte length, histogram"
attr unit bytes
bin	-inf	0
bin	0	0
bin	1	0
scalar RandomGraph.node[2].queue[5] txBytes:count 0
attr interpolationmode none
attr title "transmitting packet byte length, count"
attr unit bytes
scalar RandomGraph.node[2].queue[5] txBytes:sum 0
attr interpolationmode none
attr title "transmitting packet byte length, sum"
attr unit bytes
statistic RandomGraph.node[2].queue[5] txBytes:histogram
field count 0
field mean nan
field stddev nan
field min nan
field max nan
field sum 0
field sqrsum 0
attr interpolationmode none
attr title "transmitting packet byte length, histogram"
attr unit bytes
bin	-inf	0
bin	0	0
bin	1	0
scalar RandomGraph.node[2].queue[5] busy:timeavg 0
attr interpolationmode sample-hold
attr title "server busy state, timeavg"
scalar RandomGraph.node[2].queue[5] qlen:timeavg 0
attr interpolationmode sample-hold
attr title "queue length, timeavg"
scalar RandomGraph.node[2].queue[5] qlen:max 0
attr interpolationmode sample-hold
attr title "queue length, max"
scalar RandomGraph.node[2].queue[5] drop:count 0
attr interpolationmode none
attr title "dropped packet byte length, count"
attr unit bytes
scalar RandomGraph.node[2].queue[5] drop:sum 0
attr interpolationmode none
attr title "dropped packet byte length, sum"
attr unit bytes
scalar RandomGraph.node[2].queue[6] rxBytes:count 0
attr interpolationmode none
attr title "received packet byte length, count"
attr unit bytes
scalar RandomGraph.node[2].queue[6] rxBytes:sum 0
attr interpolationmode none
attr title "received packet byte length, sum"
attr unit bytes
statistic RandomGraph.node[2].queue[6] rxBytes:histogram
field count 0
field mean nan
field stddev nan
field min nan
field max nan
field sum 0
field sqrsum 0
attr interpolationmode none
attr title "received packet byte length, histogram"
attr unit bytes
bin	-inf	0
bin	0	0
bin	1	0
scalar RandomGraph.node[2].queue[6] txBytes:count 0
attr interpolationmode none
attr title "transmitting packet byte length, count"
attr unit bytes
scalar RandomGraph.node[2].queue[6] txBytes:sum 0
attr interpolationmode none
attr title "transmitting packet byte length, sum"
attr unit bytes
statistic RandomGraph.node[2].queue[6] txBytes:histogram
field count 0
field mean nan
field stddev nan
field min nan
field max nan
field sum 0
field sqrsum 0
attr interpolationmode none
attr title "transmitting packet byte length, histogram"
attr unit bytes
bin	-inf	0
bin	0	0
bin	1	0
scalar RandomGraph.node[2].queue[6] busy:timeavg 0
attr interpolationmode sample-hold
attr title "server busy state, timeavg"
scalar RandomGraph.node[2].queue[6] qlen:timeavg 0
attr interpolationmode sample-hold
attr title "queue length, timeavg"
scalar RandomGraph.node[2].queue[6] qlen:max 0
attr interpolationmode sample-hold
attr title "queue length, max"
scalar RandomGraph.node[2].queue[6] drop:count 0
attr interpolationmode none
attr title "dropped packet byte length, count"
attr unit bytes
scalar RandomGraph.node[2].queue[6] drop:sum 0
attr interpolationmode none
attr title "dropped packet byte length, sum"
attr unit bytes
scalar RandomGraph.node[2].queue[7] rxBytes:count 0
attr interpolationmode none
attr title "received packet byte length, count"
attr unit bytes
scalar RandomGraph.node[2].queue[7] rxBytes:sum 0
attr interpolationmode none
attr title "received packet byte length, sum"
attr unit bytes
statistic RandomGraph.node[2].queue[7] rxBytes:histogram
field count 0
field mean nan
field stddev nan
field min nan
field max nan
field sum 0
field sqrsum 0
attr interpolationmode none
attr title "received packet byte length, histogram"
attr unit bytes
bin	-inf	0
bin	0	0
bin	1	0
scalar RandomGraph.node[2].queue[7] txBytes:count 0
attr interpolationmode none
attr title "transmitting packet byte length, count"
attr unit bytes
scalar RandomGraph.node[2].queue[7] txBytes:sum 0
attr interpolationmode none
attr title "transmitting packet byte length, sum"
attr unit bytes
statistic RandomGraph.node[2].queue[7] txBytes:histogram
field count 0
field mean nan
field stddev nan
field min nan
field max nan
field sum 0
field sqrsum 0
attr interpolationmode none
attr title "transmitting packet byte length, histogram"
attr unit bytes
bin	-inf	0
bin	0	0
bin	1	0
scalar RandomGraph.node[2].queue[7] busy:timeavg 0
attr interpolationmode sample-hold
attr title "server busy state, timeavg"
scalar RandomGraph.node[2].queue[7] qlen:timeavg 0
attr interpolationmode sample-hold
attr title "queue length, timeavg"
scalar RandomGraph.node[2].queue[7] qlen:max 0
attr interpolationmode sample-hold
attr title "queue length, max"
scalar RandomGraph.node[2].queue[7] drop:count 0
attr interpolationmode none
attr title "dropped packet byte length, count"
attr unit bytes
scalar RandomGraph.node[2].queue[7] drop:sum 0
attr interpolationmode none
attr title "dropped packet byte length, sum"
attr unit bytes
scalar RandomGraph.node[2].queue[8] rxBytes:count 0
attr interpolationmode none
attr title "received packet byte length, count"
attr unit bytes
scalar RandomGraph.node[2].queue[8] rxBytes:sum 0
attr interpolationmode none
attr title "received packet byte length, sum"
attr unit bytes
statistic RandomGraph.node[2].queue[8] rxBytes:histogram
field count 0
field mean nan
field stddev nan
field min nan
field max nan
field sum 0
field sqrsum 0
attr interpolationmode none
attr title "received packet byte length, histogram"
attr unit bytes
bin	-inf	0
bin	0	0
bin	1	0
scalar RandomGraph.node[2].queue[8] txBytes:count 0
attr interpolationmode none
attr title "transmitting packet byte length, count"
attr unit bytes
scalar RandomGraph.node[2].queue[8] txBytes:sum 0
attr interpolationmode none
attr title "transmitting packet byte length, sum"
attr unit bytes
statistic RandomGraph.node[2].queue[8] txBytes:histogram
field count 0
field mean nan
field stddev nan
field min nan
field max nan
field sum 0
field sqrsum 0
attr interpolationmode none
attr title "transmitting packet byte length, histogram"
attr unit bytes
bin	-inf	0
bin	0	0
bin	1	0
scalar RandomGraph.node[2].queue[8] busy:timeavg 0
attr interpolationmode sample-hold
attr title "server busy state, timeavg"
scalar RandomGraph.node[2].queue[8] qlen:timeavg 0
attr interpolationmode sample-hold
attr title "queue length, timeavg"
scalar RandomGraph.node[2].queue[8] qlen:max 0
attr interpolationmode sample-hold
attr title "queue length, max"
scalar RandomGraph.node[2].queue[8] drop:count 0
attr interpolationmode none
attr title "dropped packet byte length, count"
attr unit bytes
scalar RandomGraph.node[2].queue[8] drop:sum 0
attr interpolationmode none
attr title "dropped packet byte length, sum"
attr unit bytes
scalar RandomGraph.node[2].queue[9] rxBytes:count 0
attr interpolationmode none
attr title "received packet byte length, count"
attr unit bytes
scalar RandomGraph.node[2].queue[9] rxBytes:sum 0
attr interpolationmode none
attr title "received packet byte length, sum"
attr unit bytes
statistic RandomGraph.node[2].queue[9] rxBytes:histogram
field count 0
field mean nan
field stddev nan
field min nan
field max nan
field sum 0
field sqrsum 0
attr interpolationmode none
attr title "received packet byte length, histogram"
attr unit bytes
bin	-inf	0
bin	0	0
bin	1	0
scalar RandomGraph.node[2].queue[9] txBytes:count 0
attr interpolationmode none
attr title "transmitting packet byte length, count"
attr unit bytes
scalar RandomGraph.node[2].queue[9] txBytes:sum 0
attr interpolationmode none
attr title "transmitting packet byte length, sum"
attr unit bytes
statistic RandomGraph.node[2].queue[9] txBytes:histogram
field count 0
field mean nan
field stddev nan
field min nan
field max nan
field sum 0
field sqrsum 0
attr interpolationmode none
attr title "transmitting packet byte length, histogram"
attr unit bytes
bin	-inf	0
bin	0	0
bin	1	0
scalar RandomGraph.node[2].queue[9] busy:timeavg 0
attr interpolationmode sample-hold
attr title "server busy state, timeavg"
scalar RandomGraph.node[2].queue[9] qlen:timeavg 0
attr interpolationmode sample-hold
attr title "queue length, timeavg"
scalar RandomGraph.node[2].queue[9] qlen:max 0
attr interpolationmode sample-hold
attr title "queue length, max"
scalar RandomGraph.node[2].queue[9] drop:count 0
attr interpolationmode none
attr title "dropped packet byte length, count"
attr unit bytes
scalar RandomGraph.node[2].queue[9] drop:sum 0
attr interpolationmode none
attr title "dropped packet byte length, sum"
attr unit bytes
scalar RandomGraph.node[2].queue[10] rxBytes:count 0
attr interpolationmode none
attr title "received packet byte length, count"
attr unit bytes
scalar RandomGraph.node[2].queue[10] rxBytes:sum 0
attr interpolationmode none
attr title "received packet byte length, sum"
attr unit bytes
statistic RandomGraph.node[2].queue[10] rxBytes:histogram
field count 0
field mean nan
field stddev nan
field min nan
field max nan
field sum 0
field sqrsum 0
attr interpolationmode none
attr title "received packet byte length, histogram"
attr unit bytes
bin	-inf	0
bin	0	0
bin	1	0
scalar RandomGraph.node[2].queue[10] txBytes:count 0
attr interpolationmode none
attr title "transmitting packet byte length, count"
attr unit bytes
scalar RandomGraph.node[2].queue[10] txBytes:sum 0
attr interpolationmode none
attr title "transmitting packet byte length, sum"
attr unit bytes
statistic RandomGraph.node[2].queue[10] txBytes:histogram
field count 0
field mean nan
field stddev nan
field min nan
field max nan
field sum 0
field sqrsum 0
attr interpolationmode none
attr title "transmitting packet byte length, histogram"
attr unit bytes
bin	-inf	0
bin	0	0
bin	1	0
scalar RandomGraph.node[2].queue[10] busy:timeavg 0
attr interpolationmode sample-hold
attr title "server busy state, timeavg"
scalar RandomGraph.node[2].queue[10] qlen:timeavg 0
attr interpolationmode sample-hold
attr title "queue length, timeavg"
scalar RandomGraph.node[2].queue[10] qlen:max 0
attr interpolationmode sample-hold
attr title "queue length, max"
scalar RandomGraph.node[2].queue[10] drop:count 0
attr interpolationmode none
attr title "dropped packet byte length, count"
attr unit bytes
scalar RandomGraph.node[2].queue[10] drop:sum 0
attr interpolationmode none
attr title "dropped packet byte length, sum"
attr unit bytes
scalar RandomGraph.node[2].queue[11] rxBytes:count 0
attr interpolationmode none
attr title "received packet byte length, count"
attr unit bytes
scalar RandomGraph.node[2].queue[11] rxBytes:sum 0
attr interpolationmode none
attr title "received packet byte length, sum"
attr unit bytes
statistic RandomGraph.node[2].queue[11] rxBytes:histogram
field count 0
field mean nan
field stddev nan
field min nan
field max nan
field sum 0
field sqrsum 0
attr interpolationmode none
[...]
field max nan
field sum 0
field sqrsum 0
attr interpolationmode none
attr title "received packet byte length, histogram"
attr unit bytes
bin	-inf	0
bin	0	0
bin	1	0
scalar RandomGraph.node[14].queue[4] txBytes:count 0
attr interpolationmode none
attr title "transmitting packet byte length, count"
attr unit bytes
scalar RandomGraph.node[14].queue[4] txBytes:sum 0
attr interpolationmode none
attr title "transmitting packet byte length, sum"
attr unit bytes
statistic RandomGraph.node[14].queue[4] txBytes:histogram
field count 0
field mean nan
field stddev nan
field min nan
field max nan
field sum 0
field sqrsum 0
attr interpolationmode none
attr title "transmitting packet byte length, histogram"
attr unit bytes
bin	-inf	0
bin	0	0
bin	1	0
scalar RandomGraph.node[14].queue[4] busy:timeavg 0
attr interpolationmode sample-hold
attr title "server busy state, timeavg"
scalar RandomGraph.node[14].queue[4] qlen:timeavg 0
attr interpolationmode sample-hold
attr title "queue length, timeavg"
scalar RandomGraph.node[14].queue[4] qlen:max 0
attr interpolationmode sample-hold
attr title "queue length, max"
scalar RandomGraph.node[14].queue[4] drop:count 0
attr interpolationmode none
attr title "dropped packet byte length, count"
attr unit bytes
scalar RandomGraph.node[14].queue[4] drop:sum 0
attr interpolationmode none
attr title "dropped packet byte length, sum"
attr unit bytes
scalar RandomGraph.node[14].queue[5] rxBytes:count 0
attr interpolationmode none
attr title "received packet byte length, count"
attr unit bytes
scalar RandomGraph.node[14].queue[5] rxBytes:sum 0
attr interpolationmode none
attr title "received packet byte length, sum"
attr unit bytes
statistic RandomGraph.node[14].queue[5] rxBytes:histogram
field count 0
field mean nan
field stddev nan
field min nan
field max nan
field sum 0
field sqrsum 0
attr interpolationmode none
attr title "received packet byte length, histogram"
attr unit bytes
bin	-inf	0
bin	0	0
bin	1	0
scalar RandomGraph.node[14].queue[5] txBytes:count 0
attr interpolationmode none
attr title "transmitting packet byte length, count"
attr unit bytes
scalar RandomGraph.node[14].queue[5] txBytes:sum 0
attr interpolationmode none
attr title "transmitting packet byte length, sum"
attr unit bytes
statistic RandomGraph.node[14].queue[5] txBytes:histogram
field count 0
field mean nan
field stddev nan
field min nan
field max nan
field sum 0
field sqrsum 0
attr interpolationmode none
attr title "transmitting packet byte length, histogram"
attr unit bytes
bin	-inf	0
bin	0	0
bin	1	0
scalar RandomGraph.node[14].queue[5] busy:timeavg 0
attr interpolationmode sample-hold
attr title "server busy state, timeavg"
scalar RandomGraph.node[14].queue[5] qlen:timeavg 0
attr interpolationmode sample-hold
attr title "queue length, timeavg"
scalar RandomGraph.node[14].queue[5] qlen:max 0
attr interpolationmode sample-hold
attr title "queue length, max"
scalar RandomGraph.node[14].queue[5] drop:count 0
attr interpolationmode none
attr title "dropped packet byte length, count"
attr unit bytes
scalar RandomGraph.node[14].queue[5] drop:sum 0
attr interpolationmode none
attr title "dropped packet byte length, sum"
attr unit bytes
scalar RandomGraph.node[14].queue[6] rxBytes:count 0
attr interpolationmode none
attr title "received packet byte length, count"
attr unit bytes
scalar RandomGraph.node[14].queue[6] rxBytes:sum 0
attr interpolationmode none
attr title "received packet byte length, sum"
attr unit bytes
statistic RandomGraph.node[14].queue[6] rxBytes:histogram
field count 0
field mean nan
field stddev nan
field min nan
field max nan
field sum 0
field sqrsum 0
attr interpolationmode none
attr title "received packet byte length, histogram"
attr unit bytes
bin	-inf	0
bin	0	0
bin	1	0
scalar RandomGraph.node[14].queue[6] txBytes:count 0
attr interpolationmode none
attr title "transmitting packet byte length, count"
attr unit bytes
scalar RandomGraph.node[14].queue[6] txBytes:sum 0
attr interpolationmode none
attr title "transmitting packet byte length, sum"
attr unit bytes
statistic RandomGraph.node[14].queue[6] txBytes:histogram
field count 0
field mean nan
field stddev nan
field min nan
field max nan
field sum 0
field sqrsum 0
attr interpolationmode none
attr title "transmitting packet byte length, histogram"
attr unit bytes
bin	-inf	0
bin	0	0
bin	1	0
scalar RandomGraph.node[14].queue[6] busy:timeavg 0
attr interpolationmode sample-hold
attr title "server busy state, timeavg"
scalar RandomGraph.node[14].queue[6] qlen:timeavg 0
attr interpolationmode sample-hold
attr title "queue length, timeavg"
scalar RandomGraph.node[14].queue[6] qlen:max 0
attr interpolationmode sample-hold
attr title "queue length, max"
scalar RandomGraph.node[14].queue[6] drop:count 0
attr interpolationmode none
attr title "dropped packet byte length, count"
attr unit bytes
scalar RandomGraph.node[14].queue[6] drop:sum 0
attr interpolationmode none
attr title "dropped packet byte length, sum"
attr unit bytes
scalar RandomGraph.node[14].queue[7] rxBytes:count 0
attr interpolationmode none
attr title "received packet byte length, count"
attr unit bytes
scalar RandomGraph.node[14].queue[7] rxBytes:sum 0
attr interpolationmode none
attr title "received packet byte length, sum"
attr unit bytes
statistic RandomGraph.node[14].queue[7] rxBytes:histogram
field count 0
field mean nan
field stddev nan
field min nan
field max nan
field sum 0
field sqrsum 0
attr interpolationmode none
attr title "received packet byte length, histogram"
attr unit bytes
bin	-inf	0
bin	0	0
bin	1	0
scalar RandomGraph.node[14].queue[7] txBytes:count 0
attr interpolationmode none
attr title "transmitting packet byte length, count"
attr unit bytes
scalar RandomGraph.node[14].queue[7] txBytes:sum 0
attr interpolationmode none
attr title "transmitting packet byte length, sum"
attr unit bytes
statistic RandomGraph.node[14].queue[7] txBytes:histogram
field count 0
field mean nan
field stddev nan
field min nan
field max nan
field sum 0
field sqrsum 0
attr interpolationmode none
attr title "transmitting packet byte length, histogram"
attr unit bytes
bin	-inf	0
bin	0	0
bin	1	0
scalar RandomGraph.node[14].queue[7] busy:timeavg 0
attr interpolationmode sample-hold
attr title "server busy state, timeavg"
scalar RandomGraph.node[14].queue[7] qlen:timeavg 0
attr interpolationmode sample-hold
attr title "queue length, timeavg"
scalar RandomGraph.node[14].queue[7] qlen:max 0
attr interpolationmode sample-hold
attr title "queue length, max"
scalar RandomGraph.node[14].queue[7] drop:count 0
attr interpolationmode none
attr title "dropped packet byte length, count"
attr unit bytes
scalar RandomGraph.node[14].queue[7] drop:sum 0
attr interpolationmode none
attr title "dropped packet byte length, sum"
attr unit bytes
scalar RandomGraph.node[14].queue[8] rxBytes:count 0
attr interpolationmode none
attr title "received packet byte length, count"
attr unit bytes
scalar RandomGraph.node[14].queue[8] rxBytes:sum 0
attr interpolationmode none
attr title "received packet byte length, sum"
attr unit bytes
statistic RandomGraph.node[14].queue[8] rxBytes:histogram
field count 0
field mean nan
field stddev nan
field min nan
field max nan
field sum 0
field sqrsum 0
attr interpolationmode none
attr title "received packet byte length, histogram"
attr unit bytes
bin	-inf	0
bin	0	0
bin	1	0
scalar RandomGraph.node[14].queue[8] txBytes:count 0
attr interpolationmode none
attr title "transmitting packet byte length, count"
attr unit bytes
scalar RandomGraph.node[14].queue[8] txBytes:sum 0
attr interpolationmode none
attr title "transmitting packet byte length, sum"
attr unit bytes
statistic RandomGraph.node[14].queue[8] txBytes:histogram
field count 0
field mean nan
field stddev nan
field min nan
field max nan
field sum 0
field sqrsum 0
attr interpolationmode none
attr title "transmitting packet byte length, histogram"
attr unit bytes
bin	-inf	0
bin	0	0
bin	1	0
scalar RandomGraph.node[14].queue[8] busy:timeavg 0
attr interpolationmode sample-hold
attr title "server busy state, timeavg"
scalar RandomGraph.node[14].queue[8] qlen:timeavg 0
attr interpolationmode sample-hold
attr title "queue length, timeavg"
scalar RandomGraph.node[14].queue[8] qlen:max 0
attr interpolationmode sample-hold
attr title "queue length, max"
scalar RandomGraph.node[14].queue[8] drop:count 0
attr interpolationmode none
attr title "dropped packet byte length, count"
attr unit bytes
scalar RandomGraph.node[14].queue[8] drop:sum 0
attr interpolationmode none
attr title "dropped packet byte length, sum"
attr unit bytes
scalar RandomGraph.node[14].queue[9] rxBytes:count 0
attr interpolationmode none
attr title "received packet byte length, count"
attr unit bytes
scalar RandomGraph.node[14].queue[9] rxBytes:sum 0
attr interpolationmode none
attr title "received packet byte length, sum"
attr unit bytes
statistic RandomGraph.node[14].queue[9] rxBytes:histogram
field count 0
field mean nan
field stddev nan
field min nan
field max nan
field sum 0
field sqrsum 0
attr interpolationmode none
attr title "received packet byte length, histogram"
attr unit bytes
bin	-inf	0
bin	0	0
bin	1	0
scalar RandomGraph.node[14].queue[9] txBytes:count 0
attr interpolationmode none
attr title "transmitting packet byte length, count"
attr unit bytes
scalar RandomGraph.node[14].queue[9] txBytes:sum 0
attr interpolationmode none
attr title "transmitting packet byte length, sum"
attr unit bytes
statistic RandomGraph.node[14].queue[9] txBytes:histogram
field count 0
field mean nan
field stddev nan
field min nan
field max nan
field sum 0
field sqrsum 0
attr interpolationmode none
attr title "transmitting packet byte length, histogram"
attr unit bytes
bin	-inf	0
bin	0	0
bin	1	0
scalar RandomGraph.node[14].queue[9] busy:timeavg 0
attr interpolationmode sample-hold
attr title "server busy state, timeavg"
scalar RandomGraph.node[14].queue[9] qlen:timeavg 0
attr interpolationmode sample-hold
attr title "queue length, timeavg"
scalar RandomGraph.node[14].queue[9] qlen:max 0
attr interpolationmode sample-hold
attr title "queue length, max"
scalar RandomGraph.node[14].queue[9] drop:count 0
attr interpolationmode none
attr title "dropped packet byte length, count"
attr unit bytes
scalar RandomGraph.node[14].queue[9] drop:sum 0
attr interpolationmode none
attr title "dropped packet byte length, sum"
attr unit bytes
scalar RandomGraph.node[14].queue[10] rxBytes:count 0
attr interpolationmode none
attr title "received packet byte length, count"
attr unit bytes
scalar RandomGraph.node[14].queue[10] rxBytes:sum 0
attr interpolationmode none
attr title "received packet byte length, sum"
attr unit bytes
statistic RandomGraph.node[14].queue[10] rxBytes:histogram
field count 0
field mean nan
field stddev nan
field min nan
field max nan
field sum 0
field sqrsum 0
attr interpolationmode none
attr title "received packet byte length, histogram"
attr unit bytes
bin	-inf	0
bin	0	0
bin	1	0
scalar RandomGraph.node[14].queue[10] txBytes:count 0
attr interpolationmode none
attr title "transmitting packet byte length, count"
attr unit bytes
scalar RandomGraph.node[14].queue[10] txBytes:sum 0
attr interpolationmode none
attr title "transmitting packet byte length, sum"
attr unit bytes
statistic RandomGraph.node[14].queue[10] txBytes:histogram
field count 0
field mean nan
field stddev nan
field min nan
field max nan
field sum 0
field sqrsum 0
attr interpolationmode none
attr title "transmitting packet byte length, histogram"
attr unit bytes
bin	-inf	0
bin	0	0
bin	1	0
scalar RandomGraph.node[14].queue[10] busy:timeavg 0
attr interpolationmode sample-hold
attr title "server busy state, timeavg"
scalar RandomGraph.node[14].queue[10] qlen:timeavg 0
attr interpolationmode sample-hold
attr title "queue length, timeavg"
scalar RandomGraph.node[14].queue[10] qlen:max 0
attr interpolationmode sample-hold
attr title "queue length, max"
scalar RandomGraph.node[14].queue[10] drop:count 0
attr interpolationmode none
attr title "dropped packet byte length, count"
attr unit bytes
scalar RandomGraph.node[14].queue[10] drop:sum 0
attr interpolationmode none
attr title "dropped packet byte length, sum"
attr unit bytes
scalar RandomGraph.node[14].queue[11] rxBytes:count 0
attr interpolationmode none
attr title "received packet byte length, count"
attr unit bytes
scalar RandomGraph.node[14].queue[11] rxBytes:sum 0
attr interpolationmode none
attr title "received packet byte length, sum"
attr unit bytes
statistic RandomGraph.node[14].queue[11] rxBytes:histogram
field count 0
field mean nan
field stddev nan
field min nan
field max nan
field sum 0
field sqrsum 0
attr interpolationmode none
attr title "received packet byte length, histogram"
attr unit bytes
bin	-inf	0
bin	0	0
bin	1	0
scalar RandomGraph.node[14].queue[11] txBytes:count 0
attr interpolationmode none
attr title "transmitting packet byte length, count"
attr unit bytes
scalar RandomGraph.node[14].queue[11] txBytes:sum 0
attr interpolationmode none
attr title "transmitting packet byte length, sum"
attr unit bytes
statistic RandomGraph.node[14].queue[11] txBytes:histogram
field count 0
field mean nan
field stddev nan
field min nan
field max nan
field sum 0
field sqrsum 0
attr interpolationmode none
attr title "transmitting packet byte length, histogram"
attr unit bytes
bin	-inf	0
bin	0	0
bin	1	0
scalar RandomGraph.node[14].queue[11] busy:timeavg 0
attr interpolationmode sample-hold
attr title "server busy state, timeavg"
scalar RandomGraph.node[14].queue[11] qlen:timeavg 0
attr interpolationmode sample-hold
attr title "queue length, timeavg"
scalar RandomGraph.node[14].queue[11] qlen:max 0
attr interpolationmode sample-hold
attr title "queue length, max"
scalar RandomGraph.node[14].queue[11] drop:count 0
attr interpolationmode none
attr title "dropped packet byte length, count"
attr unit bytes
scalar RandomGraph.node[14].queue[11] drop:sum 0
attr interpolationmode none
attr title "dropped packet byte length, sum"
attr unit bytes
scalar RandomGraph.node[14].queue[12] rxBytes:count 0
attr interpolationmode none
attr title "received packet byte length, count"
attr unit bytes
scalar RandomGraph.node[14].queue[12] rxBytes:sum 0
attr interpolationmode none
attr title "received packet byte length, sum"
attr unit bytes
statistic RandomGraph.node[14].queue[12] rxBytes:histogram
field count 0
field mean nan
field stddev nan
field min nan
field max nan
field sum 0
field sqrsum 0
attr interpolationmode none
attr title "received packet byte length, histogram"
attr unit bytes
bin	-inf	0
bin	0	0
bin	1	0
scalar RandomGraph.node[14].queue[12] txBytes:count 0
attr interpolationmode none
attr title "transmitting packet byte length, count"
attr unit bytes
scalar RandomGraph.node[14].queue[12] txBytes:sum 0
attr interpolationmode none
attr title "transmitting packet byte length, sum"
attr unit bytes
statistic RandomGraph.node[14].queue[12] txBytes:histogram
field count 0
field mean nan
field stddev nan
field min nan
field max nan
field sum 0
field sqrsum 0
attr interpolationmode none
attr title "transmitting packet byte length, histogram"
attr unit bytes
bin	-inf	0
bin	0	0
bin	1	0
scalar RandomGraph.node[14].queue[12] busy:timeavg 0
attr interpolationmode sample-hold
attr title "server busy state, timeavg"
scalar RandomGraph.node[14].queue[12] qlen:timeavg 0
attr interpolationmode sample-hold
attr title "queue length, timeavg"
scalar RandomGraph.node[14].queue[12] qlen:max 0
attr interpolationmode sample-hold
attr title "queue length, max"
scalar RandomGraph.node[14].queue[12] drop:count 0
attr interpolationmode none
attr title "dropped packet byte length, count"
attr unit bytes
scalar RandomGraph.node[14].queue[12] drop:sum 0
attr interpolationmode none
attr title "dropped packet byte length, sum"
attr unit bytes
scalar RandomGraph.node[14].queue[13] rxBytes:count 0
attr interpolationmode none
attr title "received packet byte length, count"
attr unit bytes
scalar RandomGraph.node[14].queue[13] rxBytes:sum 0
attr interpolationmode none
attr title "received packet byte length, sum"
attr unit bytes
statistic RandomGraph.node[14].queue[13] rxBytes:histogram
field count 0
field mean nan
field stddev nan
field min nan
field max nan
field sum 0
field sqrsum 0
attr interpolationmode none
attr title "received packet byte length, histogram"
attr unit bytes
bin	-inf	0
bin	0	0
bin	1	0
scalar RandomGraph.node[14].queue[13] txBytes:count 0
attr interpolationmode none
attr title "transmitting packet byte length, count"
attr unit bytes
scalar RandomGraph.node[14].queue[13] txBytes:sum 0
attr interpolationmode none
attr title "transmitting packet byte length, sum"
attr unit bytes
statistic RandomGraph.node[14].queue[13] txBytes:histogram
field count 0
field mean nan
field stddev nan
field min nan
field max nan
field sum 0
field sqrsum 0
attr interpolationmode none
attr title "transmitting packet byte length, histogram"
attr unit bytes
bin	-inf	0
bin	0	0
bin	1	0
scalar RandomGraph.node[14].queue[13] busy:timeavg 0
attr interpolationmode sample-hold
attr title "server busy state, timeavg"
scalar RandomGraph.node[14].queue[13] qlen:timeavg 0
attr interpolationmode sample-hold
attr title "queue length, timeavg"
scalar RandomGraph.node[14].queue[13] qlen:max 0
attr interpolationmode sample-hold
attr title "queue length, max"
scalar RandomGraph.node[14].queue[13] drop:count 0
attr interpolationmode none
attr title "dropped packet byte length, count"
attr unit bytes
scalar RandomGraph.node[14].queue[13] drop:sum 0
attr interpolationmode none
attr title "dropped packet byte length, sum"
attr unit bytes
scalar RandomGraph.node[14].queue[14] rxBytes:count 0
attr interpolationmode none
attr title "received packet byte length, count"
attr unit bytes
scalar RandomGraph.node[14].queue[14] rxBytes:sum 0
attr interpolationmode none
attr title "received packet byte length, sum"
attr unit bytes
statistic RandomGraph.node[14].queue[14] rxBytes:histogram
field count 0
field mean nan
field stddev nan
field min nan
field max nan
field sum 0
field sqrsum 0
attr interpolationmode none
attr title "received packet byte length, histogram"
attr unit bytes
bin	-inf	0
bin	0	0
bin	1	0
scalar RandomGraph.node[14].queue[14] txBytes:count 0
attr interpolationmode none
attr title "transmitting packet byte length, count"
attr unit bytes
scalar RandomGraph.node[14].queue[14] txBytes:sum 0
attr interpolationmode none
attr title "transmitting packet byte length, sum"
attr unit bytes
statistic RandomGraph.node[14].queue[14] txBytes:histogram
field count 0
field mean nan
field stddev nan
field min nan
field max nan
field sum 0
field sqrsum 0
attr interpolationmode none
attr title "transmitting packet byte length, histogram"
attr unit bytes
bin	-inf	0
bin	0	0
bin	1	0
scalar RandomGraph.node[14].queue[14] busy:timeavg 0
attr interpolationmode sample-hold
attr title "server busy state, timeavg"
scalar RandomGraph.node[14].queue[14] qlen:timeavg 0
attr interpolationmode sample-hold
attr title "queue length, timeavg"
scalar RandomGraph.node[14].queue[14] qlen:max 0
attr interpolationmode sample-hold
attr title "queue length, max"
scalar RandomGraph.node[14].queue[14] drop:count 0
attr interpolationmode none
attr title "dropped packet byte length, count"
attr unit bytes
scalar RandomGraph.node[14].queue[14] drop:sum 0
attr interpolationmode none
attr title "dropped packet byte length, sum"
attr unit bytes

